version 2
run General-0-20220402-12:56:08-18361
attr configname General
attr datetime 20220402-12:56:08
attr experiment General
attr inifile omnetpp.ini
attr iterationvars ""
attr iterationvarsf ""
attr measurement ""
attr network MM1_S22
attr processid 18361
attr repetition 0
attr replication #0
attr resultdir results
attr runnumber 0
attr seedset 0
param **.source.interArrivalTime exponential(1.0s)
param **.queue.serviceTime exponential(0.2s)
param **.source.numJobs 10000

vector 0 MM1_S22.queue queueLength:vector ETV
attr interpolationmode sample-hold
attr title "queue length, vector"
0	0	0	0
vector 1 MM1_S22.sink lifeTime:vector ETV
attr interpolationmode none
attr title "lifetime of arrived jobs, vector"
attr unit s
0	28	9.199842224465	1
0	30	9.258226893558	2
0	31	9.291387969734	1
0	33	9.355059197902	0
0	52	16.047551298299	1
0	53	16.068330106453	0
0	76	23.072759986721	1
0	77	23.329591984644	0
0	124	34.539859193625	1
0	125	34.631306876745	0
0	144	36.818383196401	1
0	145	36.84564604239	0
0	152	37.558382177784	1
0	153	37.645408132732	0
0	204	51.812726373643	1
0	205	51.889008079391	0
0	268	73.976100195525	1
0	269	73.982864593399	0
0	288	82.462509761904	1
0	289	82.502311625472	0
0	292	82.519836688328	1
0	293	82.688007324852	0
0	356	103.414895238895	1
0	358	103.740235654424	2
0	359	103.85797594229	1
0	361	103.859856092423	0
0	392	110.653954143996	1
0	393	110.826850106494	0
0	400	111.274026546271	1
0	401	111.342211868434	0
0	412	113.673964970091	1
0	413	113.988646867399	0
0	472	131.139629522778	1
0	473	131.190856770368	0
0	536	146.017858672076	1
0	537	146.089713612017	0
0	548	147.291642089967	1
0	549	147.469240548685	0
0	560	151.401389156376	1
0	562	151.55368278163	2
0	563	151.605034459936	1
0	565	151.625498582907	0
0	576	156.451231339321	1
0	577	156.477844941683	0
0	588	157.920263532791	1
0	589	158.319238123208	0
0	592	158.354609188735	1
0	593	158.56975962819	0
0	596	158.988071806458	1
0	597	159.922837732177	0
0	652	173.449001033839	1
0	653	173.799643028897	0
0	656	173.903912878631	1
0	658	173.920680644623	2
0	659	174.541635147278	1
0	661	174.594101009111	0
0	696	183.462355509053	1
0	697	183.590519102271	0
0	728	193.166344848529	1
0	729	193.28684667007	0
0	772	208.963987116571	1
0	773	209.294942966152	0
0	796	215.211488114016	1
0	797	215.267395264961	0
0	860	234.779152128626	1
0	861	234.802877408196	0
0	884	241.42440530627	1
0	886	241.798168600087	2
0	887	241.836514202551	1
0	889	241.947348368361	0
0	892	242.11774325496	1
0	893	242.267292256729	0
0	916	248.507415346151	1
0	917	248.509276815368	0
0	976	263.673233741761	1
0	977	263.733334835616	0
0	1008	269.203743302561	1
0	1009	269.462727966286	0
0	1016	270.675253995348	1
0	1018	270.92045208799	2
0	1020	271.007560671248	3
0	1021	271.046184709112	2
0	1023	271.206863061645	1
0	1025	271.469988313304	0
0	1032	272.437564881043	1
0	1034	272.672220730299	2
0	1036	273.017740314008	3
0	1037	273.044576417564	2
0	1039	273.099682004972	1
0	1041	273.32586570081	0
0	1056	274.241431940245	1
0	1057	274.45383086671	0
0	1092	285.918376876945	1
0	1093	286.323745250169	0
0	1156	309.486578377037	1
0	1157	309.686559473307	0
0	1196	317.614784318092	1
0	1197	317.841783613423	0
0	1336	350.03596711616	1
0	1337	350.10618919053	0
0	1352	353.327657166969	1
0	1354	353.33739257631	2
0	1355	353.43239018606	1
0	1358	353.655976424189	2
0	1359	353.877606983948	1
0	1361	353.906257588224	0
0	1396	364.13578917432	1
0	1397	364.241346589149	0
0	1400	364.327085220218	1
0	1401	364.44879560797	0
0	1420	367.645221237392	1
0	1421	367.718694727711	0
0	1436	370.021422310598	1
0	1438	370.195621027181	2
0	1440	370.402806209432	3
0	1441	370.488976191708	2
0	1444	370.541393030855	3
0	1445	370.957624177727	2
0	1447	371.114591581645	1
0	1449	371.133951076107	0
0	1460	373.906964565239	1
0	1461	373.94306841274	0
0	1472	377.713052360512	1
0	1473	378.083706766043	0
0	1476	378.26871127367	1
0	1477	378.317959505032	0
0	1492	381.064738072006	1
0	1493	381.239449804196	0
0	1504	383.845634818064	1
0	1505	384.154131606225	0
0	1508	384.214217757675	1
0	1510	384.479310859082	2
0	1511	384.793782601579	1
0	1513	384.933787728802	0
0	1516	385.092056303946	1
0	1517	385.112588009338	0
0	1528	389.0837019837	1
0	1529	389.587938605176	0
0	1540	392.215190956979	1
0	1541	392.522688287484	0
0	1552	397.286743856463	1
0	1553	397.385778231131	0
0	1580	407.649521835779	1
0	1582	407.777095409576	2
0	1583	407.921569056521	1
0	1585	408.038922817857	0
0	1616	414.290901202752	1
0	1618	414.38744248178	2
0	1619	414.594489203564	1
0	1621	414.606007786927	0
0	1656	420.511120440667	1
0	1657	420.528106618941	0
0	1680	428.27886789618	1
0	1681	428.730204393695	0
0	1684	428.747789223453	1
0	1686	428.794524125188	2
0	1688	429.320554920948	3
0	1689	429.658260392885	2
0	1692	429.691716641749	3
0	1693	429.693835744456	2
0	1695	429.897479260217	1
0	1697	430.226515945632	0
0	1768	451.025137931728	1
0	1769	451.091864362336	0
0	1788	456.536570788954	1
0	1790	457.017449013257	2
0	1791	457.085800420312	1
0	1793	457.324698409014	0
0	1804	462.893050389032	1
0	1806	463.169523105575	2
0	1808	463.456432200959	3
0	1810	463.715544456841	4
0	1811	463.729955935442	3
0	1814	463.827488997985	4
0	1815	463.86443251585	3
0	1817	464.30867535249	2
0	1819	464.361838662294	1
0	1821	464.450505541494	0
0	1836	469.935438890539	1
0	1837	470.241547973184	0
0	1904	482.679332742695	1
0	1906	482.840475321521	2
0	1907	482.894916115909	1
0	1909	482.923194738456	0
0	1952	496.472933783253	1
0	1954	496.492423076205	2
0	1955	497.084866652585	1
0	1958	497.284032170808	2
0	1960	497.605372473677	3
0	1962	497.766102514244	4
0	1963	497.863048670667	3
0	1965	497.922919271255	2
0	1967	498.377061292734	1
0	1969	498.425610380206	0
0	1992	507.103588501923	1
0	1993	507.134874241598	0
0	2012	513.131114150441	1
0	2013	513.381968985704	0
0	2020	514.51343776564	1
0	2021	514.62946511932	0
0	2104	538.206107341601	1
0	2105	538.332507383413	0
0	2132	543.26527151893	1
0	2133	543.32216557655	0
0	2144	548.01344776793	1
0	2145	548.080878436004	0
0	2200	563.522896266427	1
0	2201	563.806295765403	0
0	2248	582.043629660364	1
0	2249	582.313693549185	0
0	2260	584.279359495248	1
0	2261	584.313465287637	0
0	2268	585.189406931278	1
0	2269	585.574114810976	0
0	2276	586.669463587616	1
0	2278	586.713390821743	2
0	2279	587.021224480671	1
0	2281	587.045906374972	0
0	2296	590.012521613886	1
0	2297	590.337355496066	0
0	2316	595.258850380075	1
0	2317	595.463907610147	0
0	2324	596.286137793741	1
0	2325	596.344886117809	0
0	2360	604.798407589884	1
0	2361	604.863947665382	0
0	2368	605.576616864171	1
0	2369	605.592217292671	0
0	2380	607.959358836403	1
0	2382	607.962463193212	2
0	2384	608.412176561158	3
0	2385	608.812046678103	2
0	2387	608.939267368976	1
0	2389	609.148705820074	0
0	2396	609.326950398838	1
0	2397	610.099476210585	0
0	2448	625.866122743325	1
0	2449	626.00549773026	0
0	2476	631.606916282931	1
0	2477	633.015321175719	0
0	2496	640.576643502771	1
0	2497	641.014277075115	0
0	2500	641.406904149538	1
0	2501	641.455357235875	0
0	2508	644.67235997001	1
0	2509	644.79153197981	0
0	2524	646.546999355669	1
0	2525	646.580460420045	0
0	2540	649.242901166927	1
0	2541	649.682746233441	0
0	2564	656.716318949589	1
0	2565	657.211632367216	0
0	2568	657.623182056895	1
0	2569	658.03161922575	0
0	2588	663.260710501824	1
0	2589	663.265012227772	0
0	2596	665.559939109058	1
0	2597	665.571431417639	0
0	2600	665.654505845559	1
0	2601	665.70917358643	0
0	2636	675.988383466564	1
0	2637	676.060341274839	0
0	2644	679.512834388452	1
0	2646	679.553292344113	2
0	2648	679.678079866472	3
0	2649	679.796676886034	2
0	2651	679.859962364272	1
0	2653	679.982555818008	0
0	2664	680.668057060748	1
0	2666	680.800268660577	2
0	2667	680.829955522895	1
0	2669	681.21859563416	0
0	2672	681.222958448644	1
0	2673	681.468785366292	0
0	2684	682.23574031223	1
0	2685	682.32656398718	0
0	2744	696.159177840716	1
0	2745	696.313043024939	0
0	2752	697.2849105065	1
0	2753	697.894359462446	0
0	2768	702.852309239581	1
0	2769	703.004208754158	0
0	2820	722.770212400514	1
0	2821	722.782559732333	0
0	2824	722.795473522315	1
0	2825	722.844147491449	0
0	2836	723.924219897539	1
0	2837	724.060317464763	0
0	2844	724.442129556304	1
0	2845	724.549497473668	0
0	2876	733.942241305048	1
0	2877	734.173403942733	0
0	2884	734.981699101503	1
0	2885	735.014194058126	0
0	2892	735.587622928753	1
0	2893	735.608601191012	0
0	2896	735.688128452486	1
0	2897	735.708304457395	0
0	2908	739.052344719029	1
0	2909	739.712262474652	0
0	2940	745.51728150235	1
0	2941	745.522470020108	0
0	2948	746.341519509938	1
0	2949	746.387567380902	0
0	3024	768.103710735138	1
0	3025	768.163273124761	0
0	3076	783.526927451667	1
0	3077	783.773558155385	0
0	3112	790.959552267585	1
0	3113	791.030596728044	0
0	3128	796.348525270397	1
0	3129	796.360789727386	0
0	3132	796.430787835868	1
0	3133	796.70157604827	0
0	3152	803.27928151752	1
0	3153	803.352595291918	0
0	3184	811.967643027936	1
0	3185	812.064411663568	0
0	3204	816.055762795151	1
0	3205	816.252432934513	0
0	3252	827.614206552378	1
0	3254	827.879701595026	2
0	3255	827.940232803962	1
0	3257	827.957207548724	0
0	3260	827.998966465001	1
0	3261	828.004969260614	0
0	3300	833.361844643847	1
0	3302	833.454232162602	2
0	3303	833.472398152031	1
0	3305	833.656774003687	0
0	3308	833.696811121478	1
0	3309	834.047635758027	0
0	3340	840.689704480757	1
0	3342	840.748733533613	2
0	3343	840.794159239902	1
0	3345	840.810848843414	0
0	3360	845.379987145782	1
0	3361	845.455476089792	0
0	3412	861.679124997414	1
0	3413	861.745684868859	0
0	3420	862.866200719353	1
0	3421	863.079425448547	0
0	3444	868.989466707588	1
0	3445	869.229486389292	0
0	3456	871.281750190752	1
0	3457	871.352780117559	0
0	3460	871.929820550435	1
0	3461	872.01321690805	0
0	3472	873.327663444165	1
0	3473	873.516848703665	0
0	3512	882.480213677681	1
0	3513	882.618967090879	0
0	3520	886.351889171608	1
0	3522	886.562306074842	2
0	3523	886.564841162526	1
0	3525	886.711999827928	0
0	3536	887.653473646671	1
0	3537	887.693796065668	0
0	3564	901.802660350894	1
0	3565	901.889637020181	0
0	3576	903.072116900487	1
0	3577	903.077271533338	0
0	3580	903.161031262832	1
0	3581	903.215174117722	0
0	3620	913.668710153636	1
0	3621	913.953464594941	0
0	3640	920.331341093972	1
0	3641	920.611880707935	0
0	3648	922.398431216193	1
0	3650	922.489869864234	2
0	3651	922.497877670673	1
0	3654	922.591294647624	2
0	3655	922.595575527951	1
0	3657	922.857033804951	0
0	3692	935.756418033632	1
0	3694	935.866320808821	2
0	3695	936.166746922997	1
0	3697	936.357357608232	0
0	3700	936.675204497438	1
0	3701	936.708090411699	0
0	3720	943.217596294705	1
0	3721	943.412690420104	0
0	3756	956.382592225561	1
0	3757	956.539101016437	0
0	3804	969.79384993611	1
0	3805	970.138320302017	0
0	3844	981.940803077601	1
0	3845	982.010238536744	0
0	3876	990.657319719048	1
0	3877	990.751337318236	0
0	3896	997.946266065687	1
0	3897	999.201111806097	0
0	3924	1004.275185083706	1
0	3926	1004.421780876256	2
0	3927	1004.592676525894	1
0	3929	1004.841628941652	0
0	3964	1010.920552016221	1
0	3965	1010.96593781194	0
0	3968	1010.983486498084	1
0	3969	1011.018098443186	0
0	3984	1014.452852381008	1
0	3985	1014.471834692256	0
0	3988	1014.494414499806	1
0	3989	1015.029292418793	0
0	4036	1026.348892859814	1
0	4038	1026.601583236732	2
0	4039	1026.830591558012	1
0	4041	1026.985816193535	0
0	4064	1032.366183835317	1
0	4065	1032.452718640556	0
0	4076	1040.389783305674	1
0	4077	1040.406490321552	0
0	4092	1044.517572360012	1
0	4094	1044.661383714804	2
0	4095	1044.851081673347	1
0	4097	1045.386033552119	0
0	4112	1049.632918173023	1
0	4114	1049.770683216565	2
0	4116	1049.909205058676	3
0	4118	1050.340488390825	4
0	4119	1050.463717381387	3
0	4121	1050.521975078066	2
0	4123	1050.536079550985	1
0	4125	1050.551186843167	0
0	4128	1050.978120110079	1
0	4129	1051.127135599434	0
0	4196	1062.700984465426	1
0	4198	1062.769485147208	2
0	4199	1062.995696474284	1
0	4201	1062.998488887935	0
0	4232	1070.777823469605	1
0	4233	1070.898114306186	0
0	4240	1071.530609606258	1
0	4241	1071.67851888646	0
0	4288	1083.238874480473	1
0	4289	1083.275729691199	0
0	4332	1091.630119952512	1
0	4333	1092.035211263462	0
0	4372	1109.840011924724	1
0	4374	1109.9453754171	2
0	4376	1110.051015692656	3
0	4377	1110.208571046465	2
0	4380	1110.433591566723	3
0	4381	1110.49314989876	2
0	4383	1110.496591437389	1
0	4385	1110.740253992622	0
0	4388	1111.18003603924	1
0	4389	1111.422836645159	0
0	4396	1114.418797582367	1
0	4397	1114.454227233259	0
0	4404	1115.168976588298	1
0	4405	1115.389181747299	0
0	4412	1116.994811634396	1
0	4413	1117.168435300057	0
0	4464	1133.640761685091	1
0	4465	1133.730393279713	0
0	4472	1137.867134223454	1
0	4473	1137.937872353391	0
0	4476	1138.097886060431	1
0	4477	1138.2768326383	0
0	4500	1144.337639940597	1
0	4502	1144.788961526175	2
0	4503	1145.502114610241	1
0	4505	1145.849288566406	0
0	4528	1153.139869335686	1
0	4529	1153.233377132717	0
0	4544	1156.714110794829	1
0	4546	1156.984332894351	2
0	4547	1157.007982438022	1
0	4549	1157.126963671555	0
0	4636	1180.885666893386	1
0	4638	1180.947899110614	2
0	4639	1181.081352045565	1
0	4641	1181.538285873356	0
0	4664	1183.929357793473	1
0	4665	1184.021450394923	0
0	4676	1187.680120203935	1
0	4677	1187.74275964849	0
0	4724	1199.802249801216	1
0	4725	1199.994005056459	0
0	4776	1216.601047292619	1
0	4777	1216.696559658701	0
0	4808	1223.467501119894	1
0	4809	1223.485875538432	0
0	4844	1230.538362982465	1
0	4845	1230.845301232761	0
0	4852	1232.860497734431	1
0	4853	1232.861549165291	0
0	4856	1232.968517280448	1
0	4857	1233.058870727211	0
0	4876	1239.071716881961	1
0	4877	1239.181831171991	0
0	4884	1242.809250055916	1
0	4886	1242.809941845465	2
0	4887	1242.8930003387	1
0	4889	1243.041201062464	0
0	4896	1248.204307883638	1
0	4897	1248.282263465323	0
0	4920	1255.552232582237	1
0	4921	1255.555089638776	0
0	4944	1259.727828111308	1
0	4945	1259.909844031759	0
0	4976	1265.295106078434	1
0	4977	1265.398199631282	0
0	4992	1270.281000497952	1
0	4994	1270.542762207621	2
0	4995	1270.714838802286	1
0	4997	1270.726676441839	0
0	5000	1270.995074898295	1
0	5001	1271.036830777522	0
0	5036	1286.160499853577	1
0	5038	1286.31766327594	2
0	5039	1286.347547957548	1
0	5041	1286.39069667923	0
0	5044	1286.617927355291	1
0	5045	1286.674620346066	0
0	5072	1302.978074295305	1
0	5073	1303.132263542674	0
0	5092	1309.360215650309	1
0	5093	1309.39666363018	0
0	5096	1309.662552646789	1
0	5097	1309.705195730792	0
0	5100	1309.858481990727	1
0	5101	1309.980879063172	0
0	5140	1316.445595818621	1
0	5142	1316.675023340157	2
0	5144	1316.825550661113	3
0	5145	1317.12592905122	2
0	5147	1317.206202643819	1
0	5149	1317.299598171093	0
0	5164	1321.155094660019	1
0	5165	1321.240720211306	0
0	5168	1321.568009535647	1
0	5169	1321.613785162216	0
0	5184	1325.242298281434	1
0	5185	1325.440447422672	0
0	5200	1332.965116633135	1
0	5201	1333.093417146087	0
0	5212	1338.029237607074	1
0	5213	1338.210713052769	0
0	5220	1339.680144410751	1
0	5221	1339.958058574961	0
0	5240	1342.938566943692	1
0	5241	1343.143885317955	0
0	5256	1345.930674009623	1
0	5257	1345.955999204188	0
0	5260	1346.180192697296	1
0	5261	1346.197146495178	0
0	5264	1346.34693525176	1
0	5265	1346.626395452089	0
0	5276	1350.146458911124	1
0	5277	1350.378324069595	0
0	5300	1357.839496803009	1
0	5301	1358.011639866105	0
0	5304	1358.392625792358	1
0	5305	1358.659519490019	0
0	5316	1360.543345975981	1
0	5317	1360.743084910184	0
0	5328	1362.664206529775	1
0	5330	1362.749308209846	2
0	5332	1363.260881667019	3
0	5333	1363.295413296219	2
0	5335	1363.514659160672	1
0	5337	1363.56469268654	0
0	5344	1364.245129929966	1
0	5345	1364.273123656116	0
0	5368	1369.258374365846	1
0	5370	1369.346307711151	2
0	5371	1369.473854722957	1
0	5373	1369.582751077482	0
0	5396	1375.806978235988	1
0	5398	1375.821869491501	2
0	5399	1376.038175808994	1
0	5402	1376.172692981569	2
0	5403	1376.362815904285	1
0	5406	1376.534081764212	2
0	5407	1376.553045207011	1
0	5409	1376.834947958783	0
0	5412	1376.973966203036	1
0	5413	1377.167412436195	0
0	5432	1380.396269240263	1
0	5434	1380.521256205327	2
0	5435	1380.584498383251	1
0	5437	1380.920066940988	0
0	5444	1381.799549013077	1
0	5445	1381.979724914743	0
0	5508	1406.283798509327	1
0	5509	1406.415252112267	0
0	5520	1409.615534260367	1
0	5522	1409.65554648261	2
0	5523	1409.671308337305	1
0	5526	1409.68620444499	2
0	5527	1409.783783220695	1
0	5529	1409.896647250513	0
0	5564	1417.808755186487	1
0	5565	1417.90705653693	0
0	5572	1419.813641958342	1
0	5573	1420.110471506256	0
0	5588	1424.978821223929	1
0	5590	1425.148540453817	2
0	5591	1425.449165173845	1
0	5593	1425.659969681273	0
0	5612	1430.220341509862	1
0	5613	1430.33131046472	0
0	5676	1453.392658630595	1
0	5677	1453.469583105166	0
0	5708	1463.800141201448	1
0	5710	1463.867476677749	2
0	5711	1464.52713139358	1
0	5714	1464.630998944658	2
0	5715	1464.775822819527	1
0	5717	1464.944539739083	0
0	5752	1476.652600636228	1
0	5753	1476.801860040347	0
0	5756	1476.958238310954	1
0	5757	1477.043977359831	0
0	5796	1484.93924321215	1
0	5797	1485.175890327044	0
0	5808	1486.984033658274	1
0	5810	1487.029520516487	2
0	5811	1487.030760294319	1
0	5813	1487.174375382518	0
0	5820	1489.577412967178	1
0	5821	1489.698526589002	0
0	5832	1494.752738872055	1
0	5834	1494.859627268942	2
0	5835	1494.999951389492	1
0	5837	1495.067529274673	0
0	5840	1495.223742254504	1
0	5842	1495.442702422896	2
0	5843	1495.887609611738	1
0	5845	1495.889398386965	0
0	5892	1511.827355024718	1
0	5894	1511.865850659607	2
0	5895	1512.112961462298	1
0	5897	1512.212725240102	0
0	5900	1512.253681565029	1
0	5901	1512.341286337059	0
0	5904	1512.421070983434	1
0	5905	1512.485911599789	0
0	5916	1513.435142062791	1
0	5917	1513.59537394449	0
0	5940	1517.380177813013	1
0	5941	1517.678973896426	0
0	5972	1531.522590412862	1
0	5973	1531.692733002345	0
0	6020	1544.622861523966	1
0	6022	1544.656515215301	2
0	6023	1544.721008280378	1
0	6025	1545.039050185416	0
0	6056	1555.551429189472	1
0	6058	1555.770456033942	2
0	6059	1555.845933681102	1
0	6061	1555.913628167546	0
0	6088	1561.818571009035	1
0	6089	1561.885386406314	0
0	6096	1562.64216835809	1
0	6097	1562.80905578905	0
0	6100	1562.962429499923	1
0	6101	1563.286789814762	0
0	6124	1570.463133306158	1
0	6125	1571.182119885517	0
0	6176	1585.471159557878	1
0	6177	1585.48939433411	0
0	6192	1588.301581497198	1
0	6193	1588.312148473583	0
0	6200	1589.571705051152	1
0	6201	1589.738374839153	0
0	6204	1590.714629276379	1
0	6205	1591.020363217593	0
0	6208	1591.133154088278	1
0	6209	1591.396229300734	0
0	6220	1593.873720621302	1
0	6221	1593.974847046408	0
0	6236	1600.306838565147	1
0	6238	1600.535464302729	2
0	6239	1600.81011852515	1
0	6241	1600.905616510174	0
0	6252	1602.26535812984	1
0	6253	1602.389518375447	0
0	6308	1615.02051676304	1
0	6309	1615.250128634527	0
0	6332	1620.679276415223	1
0	6334	1620.947786743516	2
0	6335	1621.073125134284	1
0	6337	1621.398840803633	0
0	6344	1623.268204545756	1
0	6345	1623.416115406003	0
0	6352	1623.900075394611	1
0	6354	1624.835627347129	2
0	6355	1624.845488023553	1
0	6357	1624.956449636867	0
0	6360	1624.976702549059	1
0	6361	1625.226131620489	0
0	6392	1629.031968780865	1
0	6393	1629.478456871164	0
0	6400	1630.790284290307	1
0	6402	1631.237563675029	2
0	6403	1631.265023966208	1
0	6405	1631.304691318643	0
0	6432	1638.79021827334	1
0	6433	1638.942017891858	0
0	6464	1644.71643291505	1
0	6465	1645.174897792561	0
0	6472	1646.283474054676	1
0	6473	1646.31861902588	0
0	6500	1652.366360705499	1
0	6501	1652.552082119827	0
0	6516	1656.375114407289	1
0	6517	1656.648381853209	0
0	6536	1660.742035170954	1
0	6537	1660.761302578279	0
0	6556	1666.106489082861	1
0	6557	1666.342147282387	0
0	6564	1669.160129234447	1
0	6565	1669.231784620561	0
0	6580	1673.582671608319	1
0	6581	1674.112263922906	0
0	6616	1687.552067222641	1
0	6617	1687.752919382625	0
0	6656	1700.928334859553	1
0	6657	1700.99040148123	0
0	6716	1721.221671155755	1
0	6717	1721.283815253968	0
0	6728	1722.395776356085	1
0	6730	1722.43796006017	2
0	6732	1722.471285126824	3
0	6734	1722.47604394013	4
0	6735	1722.63997952936	3
0	6737	1722.728241022593	2
0	6740	1722.755965579247	3
0	6741	1722.81106993293	2
0	6743	1722.852901349252	1
0	6745	1723.015010874259	0
0	6748	1723.033739593247	1
0	6749	1723.339896183715	0
0	6756	1725.649732464773	1
0	6757	1725.755381019693	0
0	6760	1726.221133192423	1
0	6761	1726.569426319601	0
0	6768	1727.410652447281	1
0	6769	1727.782508622509	0
0	6788	1730.683571913175	1
0	6789	1730.718629568839	0
0	6792	1730.796788311759	1
0	6793	1730.827655548771	0
0	6804	1732.552107571719	1
0	6805	1732.599028353155	0
0	6820	1734.915355280992	1
0	6821	1735.050038273123	0
0	6880	1750.202164075983	1
0	6881	1750.338921737546	0
0	6896	1754.984610220432	1
0	6897	1755.246864283269	0
0	6948	1765.484216678495	1
0	6949	1765.792816186258	0
0	6968	1771.336025816962	1
0	6970	1771.375878707757	2
0	6971	1771.382429306742	1
0	6973	1771.445297823535	0
0	7004	1777.040555569477	1
0	7005	1777.104279284577	0
0	7016	1778.496566880789	1
0	7017	1778.515102532869	0
0	7052	1783.857688078313	1
0	7053	1784.046650259545	0
0	7192	1826.876982957131	1
0	7193	1827.226268240419	0
0	7208	1831.722898753169	1
0	7209	1831.80267619788	0
0	7236	1837.779492816425	1
0	7237	1837.947807544501	0
0	7252	1845.8810757244	1
0	7253	1846.248595225159	0
0	7280	1860.454052517285	1
0	7281	1860.485272293726	0
0	7292	1861.571509682708	1
0	7293	1861.589548346408	0
0	7300	1863.546421012101	1
0	7302	1863.887719597214	2
0	7303	1864.168711810964	1
0	7305	1864.207830070766	0
0	7348	1876.112653718103	1
0	7349	1876.161669994044	0
0	7352	1876.53030066706	1
0	7353	1876.641253114893	0
0	7372	1881.28457058916	1
0	7373	1881.31986587621	0
0	7376	1881.453428608017	1
0	7377	1881.556519167534	0
0	7432	1896.19502514098	1
0	7433	1896.662053293346	0
0	7452	1898.977457205307	1
0	7453	1899.012710916257	0
0	7460	1899.1956643098	1
0	7461	1899.227115404281	0
0	7556	1927.958196181335	1
0	7557	1928.068575203111	0
0	7560	1928.32904612856	1
0	7561	1928.407929456553	0
0	7564	1928.448270174579	1
0	7566	1928.452137668904	2
0	7567	1928.594810540625	1
0	7569	1929.031948157283	0
0	7584	1932.506838581618	1
0	7585	1932.703138688941	0
0	7616	1941.170740583731	1
0	7617	1941.287118751483	0
0	7624	1945.093207593218	1
0	7625	1945.240458900228	0
0	7628	1945.351232344046	1
0	7630	1945.421926551596	2
0	7631	1945.432421349295	1
0	7633	1945.544783187406	0
0	7712	1969.189272873518	1
0	7713	1969.201419068858	0
0	7740	1974.945209485706	1
0	7741	1975.083434136945	0
0	7776	1984.432413467974	1
0	7777	1984.45310274119	0
0	7796	1987.15628865503	1
0	7797	1987.447265723851	0
0	7800	1987.597098420113	1
0	7801	1987.653998469395	0
0	7820	1993.754541350503	1
0	7821	1994.0192146642	0
0	7828	1994.621551543926	1
0	7830	1995.404147932843	2
0	7832	1995.75757521775	3
0	7833	1995.781394641152	2
0	7835	1995.83289448497	1
0	7837	1995.990865476222	0
0	7844	1997.11291467822	1
0	7845	1997.325926406628	0
0	7912	2020.394436354244	1
0	7913	2020.526188724647	0
0	7920	2022.386398048197	1
0	7921	2022.717327623833	0
0	7976	2036.085116026699	1
0	7977	2036.127180255781	0
0	7984	2039.334277412219	1
0	7985	2039.428433622156	0
0	7988	2039.503256246782	1
0	7989	2039.559260385365	0
0	7992	2039.575922387031	1
0	7994	2039.738224282373	2
0	7995	2039.765748928221	1
0	7997	2039.9364091573	0
0	8020	2046.714241823876	1
0	8021	2046.72605595605	0
0	8092	2063.357435915379	1
0	8093	2063.407940044884	0
0	8096	2063.700999284416	1
0	8097	2063.791045936781	0
0	8152	2075.289349735813	1
0	8154	2075.319658135169	2
0	8156	2075.824144826063	3
0	8157	2075.961604879865	2
0	8159	2076.145837243331	1
0	8161	2076.30317934457	0
0	8228	2097.402063121837	1
0	8229	2097.53218597535	0
0	8256	2103.124579583809	1
0	8257	2103.4701956255	0
0	8280	2107.354600552635	1
0	8281	2107.421789273387	0
0	8304	2112.465375114678	1
0	8305	2112.499754801847	0
0	8312	2112.650139976648	1
0	8313	2112.883269730644	0
0	8372	2124.9837558704	1
0	8373	2125.371956420227	0
0	8428	2139.418488580441	1
0	8429	2139.502853113253	0
0	8492	2151.172332769707	1
0	8493	2151.206608346012	0
0	8496	2151.500184185179	1
0	8498	2151.564428960405	2
0	8499	2151.684396249077	1
0	8502	2152.09040460999	2
0	8504	2152.494244406525	3
0	8505	2152.588586039499	2
0	8507	2153.500340359941	1
0	8509	2153.613429493307	0
0	8512	2153.683024361854	1
0	8513	2153.820227999288	0
0	8544	2165.472419774615	1
0	8545	2165.570598865072	0
0	8556	2167.584573523063	1
0	8557	2167.661462628542	0
0	8596	2176.237929809243	1
0	8597	2176.379528640883	0
0	8604	2177.182059124273	1
0	8605	2177.5134241901	0
0	8652	2194.653481331911	1
0	8653	2194.766745651015	0
0	8672	2199.013804304895	1
0	8673	2199.406937556375	0
0	8692	2204.16012293932	1
0	8693	2204.259606641463	0
0	8712	2211.250423337605	1
0	8713	2211.36991321211	0
0	8720	2212.11719609132	1
0	8721	2212.373961630496	0
0	8736	2216.106677782555	1
0	8737	2216.45456853637	0
0	8740	2216.597710758893	1
0	8741	2216.654965308657	0
0	8744	2216.721807660018	1
0	8745	2216.809783405001	0
0	8768	2221.82337539048	1
0	8769	2222.024863546754	0
0	8776	2223.677995298462	1
0	8777	2223.818047038545	0
0	8832	2239.372223421469	1
0	8833	2239.688046398246	0
0	8896	2252.581534214767	1
0	8898	2253.010125130375	2
0	8899	2253.030064297729	1
0	8901	2253.127344571186	0
0	8928	2265.814782261328	1
0	8929	2265.820409861583	0
0	8932	2265.975389571599	1
0	8933	2266.276796910378	0
0	9000	2288.721558388438	1
0	9001	2288.749355600569	0
0	9028	2297.248570266965	1
0	9029	2297.550536184005	0
0	9032	2297.733652980413	1
0	9033	2297.788894759871	0
0	9060	2309.493855977557	1
0	9061	2309.73544367631	0
0	9148	2338.627659036346	1
0	9150	2339.005592725397	2
0	9151	2339.013144945921	1
0	9154	2339.059422955795	2
0	9155	2339.117475935544	1
0	9157	2339.774384798718	0
0	9180	2344.535377313932	1
0	9182	2344.623112893922	2
0	9183	2344.899654824399	1
0	9186	2345.172350353089	2
0	9187	2345.460728764776	1
0	9189	2345.56462168333	0
0	9192	2345.567818446575	1
0	9194	2345.791589217602	2
0	9195	2345.909447756275	1
0	9197	2345.993709965655	0
0	9204	2346.803349565234	1
0	9205	2346.91312871109	0
0	9208	2347.09884780569	1
0	9209	2347.13572829275	0
0	9256	2362.329616738126	1
0	9258	2362.824290873663	2
0	9259	2363.083414287928	1
0	9262	2363.106453940246	2
0	9263	2363.347610470212	1
0	9265	2363.912432721979	0
0	9272	2364.466592001005	1
0	9273	2364.476386101159	0
0	9308	2370.73604634467	1
0	9309	2370.746208191408	0
0	9332	2377.184217297695	1
0	9333	2377.192534415559	0
0	9336	2377.453160595093	1
0	9338	2377.561919380275	2
0	9339	2378.124654021076	1
0	9342	2378.409377949871	2
0	9343	2378.469839859177	1
0	9345	2379.441683514985	0
0	9428	2398.860225501041	1
0	9430	2399.403499251699	2
0	9431	2399.487880982528	1
0	9434	2400.00108451624	2
0	9436	2400.258727400939	3
0	9437	2400.576327610971	2
0	9439	2400.645295557377	1
0	9441	2400.932880784106	0
0	9464	2408.486056309864	1
0	9465	2409.084367703569	0
0	9484	2414.376726553128	1
0	9485	2414.381247592129	0
0	9504	2419.752914643754	1
0	9505	2420.208338139897	0
0	9508	2420.457240057805	1
0	9510	2420.467202114064	2
0	9511	2420.469007654421	1
0	9513	2420.532640963863	0
0	9560	2429.749962633434	1
0	9561	2429.782398460546	0
0	9564	2429.907755556826	1
0	9565	2430.12054712956	0
0	9568	2430.367210792896	1
0	9569	2430.398080738706	0
0	9644	2448.154367750419	1
0	9645	2448.434894226457	0
0	9664	2451.119479235088	1
0	9665	2451.145965473489	0
0	9680	2454.710239346075	1
0	9681	2454.718994829247	0
0	9684	2455.040740744669	1
0	9685	2455.374507319935	0
0	9720	2466.169910993241	1
0	9722	2466.461222966228	2
0	9724	2466.496961413828	3
0	9725	2466.498459300332	2
0	9727	2467.041614371839	1
0	9730	2467.292081485116	2
0	9731	2467.597786956982	1
0	9733	2467.623337253879	0
0	9824	2500.848678230053	1
0	9825	2501.16381627305	0
0	9852	2507.962666655793	1
0	9854	2507.970611383605	2
0	9855	2508.41260633917	1
0	9857	2508.630531773755	0
0	9888	2518.594819951931	1
0	9889	2519.137838911878	0
0	9900	2519.798579998945	1
0	9902	2519.828365484759	2
0	9903	2519.963623319943	1
0	9905	2520.135994248906	0
0	9908	2520.144744098059	1
0	9909	2520.15681006213	0
0	9912	2520.231299703386	1
0	9913	2520.259947025942	0
0	9916	2520.276222033927	1
0	9917	2520.423472943642	0
0	9940	2524.903087628633	1
0	9941	2524.950287390237	0
0	9944	2525.165642614392	1
0	9945	2525.221253738693	0
0	9988	2540.266221582764	1
0	9989	2540.506227888277	0
0	9996	2540.9011350867	1
0	9997	2540.918739620656	0
0	10000	2541.210472753686	1
0	10001	2541.299936034144	0
0	10036	2548.369891514271	1
0	10037	2548.516436908972	0
0	10044	2549.402004579064	1
0	10045	2549.475070646806	0
0	10052	2551.57076084251	1
0	10053	2551.828157806925	0
0	10064	2555.052096158681	1
0	10065	2555.158424746821	0
0	10104	2565.637000020897	1
0	10105	2565.975217397455	0
0	10140	2572.982259869885	1
0	10141	2573.599409939956	0
0	10184	2584.205745644949	1
0	10185	2584.26157028553	0
0	10204	2588.016202456026	1
0	10205	2588.456545830247	0
0	10220	2590.18212740115	1
0	10221	2590.379704988264	0
0	10224	2591.046484390257	1
0	10225	2591.238201541906	0
0	10240	2596.9742796989	1
0	10241	2597.02872863427	0
0	10256	2602.675606922758	1
0	10257	2602.810007198574	0
0	10288	2608.83124817544	1
0	10289	2609.163823026041	0
0	10372	2629.547644194649	1
0	10373	2629.822170408606	0
0	10392	2633.169933514196	1
0	10393	2633.36441633287	0
0	10440	2648.260430516768	1
0	10442	2648.748844235324	2
0	10443	2648.809242949105	1
0	10445	2648.87757501365	0
0	10456	2650.664443737375	1
0	10457	2650.875787442977	0
0	10476	2657.100462824485	1
0	10477	2657.200145620499	0
0	10484	2657.408881328372	1
0	10485	2657.58948418015	0
0	10496	2660.476213963683	1
0	10497	2660.492577345433	0
0	10504	2662.325402465018	1
0	10505	2662.586910045626	0
0	10512	2664.263275529837	1
0	10513	2664.425900507271	0
0	10552	2674.181890464462	1
0	10553	2674.18282833848	0
0	10576	2681.936725271825	1
0	10578	2682.024004181778	2
0	10579	2682.037841962503	1
0	10581	2682.205814996261	0
0	10592	2682.554580369964	1
0	10593	2682.778879399083	0
0	10620	2693.121509955005	1
0	10621	2693.14096078958	0
0	10664	2702.131664512627	1
0	10665	2702.163072192965	0
0	10684	2707.144397267265	1
0	10685	2707.272442970885	0
0	10692	2708.442660903715	1
0	10693	2709.066148509941	0
0	10696	2709.139708416269	1
0	10697	2709.381183502187	0
0	10704	2712.56445601866	1
0	10705	2712.746846867757	0
0	10716	2716.739845532166	1
0	10717	2716.852921514342	0
0	10740	2720.55797340143	1
0	10741	2720.733340763367	0
0	10748	2720.851871462408	1
0	10749	2720.962664511486	0
0	10756	2722.645667235991	1
0	10757	2722.717438180642	0
0	10780	2728.794400530303	1
0	10781	2728.881605868368	0
0	10792	2731.98648385557	1
0	10794	2732.082704215202	2
0	10795	2732.123042212116	1
0	10798	2732.161904536732	2
0	10800	2732.333950744674	3
0	10801	2732.344097628194	2
0	10803	2732.562871313023	1
0	10805	2732.712558337808	0
0	10808	2732.737773174018	1
0	10809	2732.980747934591	0
0	10816	2736.930954119916	1
0	10817	2737.609935122486	0
0	10896	2760.916755116476	1
0	10897	2761.035884284319	0
0	10908	2763.542542320113	1
0	10909	2763.545235341453	0
0	10968	2781.772001722872	1
0	10969	2782.017032288158	0
0	10984	2784.371666024042	1
0	10985	2784.612836993935	0
0	10988	2784.628761036301	1
0	10989	2784.680497436024	0
0	10996	2792.959986603417	1
0	10997	2793.14092351028	0
0	11044	2806.016306102357	1
0	11045	2806.165050942892	0
0	11096	2820.130133402572	1
0	11097	2820.15632667115	0
0	11164	2838.204840676375	1
0	11165	2838.213769774336	0
0	11168	2838.251351359957	1
0	11169	2838.61674124033	0
0	11188	2844.303858882951	1
0	11189	2844.461941363936	0
0	11200	2846.13293003496	1
0	11201	2846.243672346646	0
0	11228	2853.507971260996	1
0	11229	2854.050004842483	0
0	11248	2862.471703691034	1
0	11249	2862.998542071216	0
0	11312	2882.584778302472	1
0	11313	2883.208096998986	0
0	11316	2883.401678422928	1
0	11317	2883.502851335184	0
0	11340	2888.855035812729	1
0	11342	2889.226650512489	2
0	11343	2889.344791022333	1
0	11345	2889.801712185318	0
0	11372	2902.737234263926	1
0	11373	2903.036371571077	0
0	11424	2919.023329536623	1
0	11425	2919.210719079003	0
0	11436	2923.963155968899	1
0	11437	2924.486258245691	0
0	11472	2929.286253466506	1
0	11473	2929.377463195248	0
0	11500	2934.188409018728	1
0	11502	2934.195722902491	2
0	11504	2934.23345620135	3
0	11505	2934.260625868278	2
0	11507	2934.27595607415	1
0	11509	2934.328366886933	0
0	11512	2934.357594026998	1
0	11513	2934.501130996524	0
0	11528	2936.617076542154	1
0	11529	2937.004772478936	0
0	11532	2937.127455362698	1
0	11533	2937.290982199193	0
0	11544	2939.158171015833	1
0	11546	2939.286686993564	2
0	11547	2939.719805796535	1
0	11549	2940.024018553646	0
0	11568	2945.3077251665	1
0	11569	2945.91811528239	0
0	11624	2966.251015090553	1
0	11625	2966.256101288157	0
0	11636	2968.913853240582	1
0	11637	2968.940780774011	0
0	11668	2979.442933919014	1
0	11669	2979.564302682915	0
0	11680	2984.339407141205	1
0	11681	2984.88373359476	0
0	11684	2985.304337172335	1
0	11685	2985.429059058358	0
0	11688	2985.464797183159	1
0	11690	2985.58281548396	2
0	11692	2985.590656357962	3
0	11693	2985.938111567675	2
0	11696	2986.047861380016	3
0	11697	2986.115950545899	2
0	11699	2986.175263525146	1
0	11702	2986.339494063937	2
0	11703	2986.441613784086	1
0	11705	2986.492901721734	0
0	11724	2990.588271831729	1
0	11725	2991.312592090615	0
0	11776	3003.790202540815	1
0	11777	3003.949492270249	0
0	11824	3020.963232338581	1
0	11825	3021.047235385554	0
0	11840	3025.372149172867	1
0	11841	3025.402811995013	0
0	11844	3025.455850778322	1
0	11845	3025.866568570651	0
0	11868	3031.4735390953	1
0	11870	3031.641204713487	2
0	11872	3031.785993477775	3
0	11873	3031.842130200502	2
0	11875	3032.221118446739	1
0	11877	3032.301442446672	0
0	11888	3034.987412171071	1
0	11889	3035.073537589136	0
0	11916	3040.782487886148	1
0	11917	3041.371351429709	0
0	11936	3044.182795112376	1
0	11937	3044.2214316964	0
0	11976	3056.000057477466	1
0	11977	3056.057396760072	0
0	12008	3064.263226549642	1
0	12009	3064.463295340235	0
0	12036	3071.130662434403	1
0	12038	3071.211600387454	2
0	12039	3071.231493097598	1
0	12041	3071.272177385545	0
0	12044	3071.333420655816	1
0	12045	3071.45711637466	0
0	12068	3076.148247419395	1
0	12070	3076.286067003448	2
0	12071	3076.712939178738	1
0	12073	3076.716630076469	0
0	12080	3077.378485499953	1
0	12082	3077.830574917007	2
0	12083	3077.857654084151	1
0	12085	3078.045971446528	0
0	12100	3082.576987348258	1
0	12101	3083.058693869412	0
0	12120	3085.832018668071	1
0	12121	3085.908405380506	0
0	12124	3085.918125145987	1
0	12125	3086.143133726096	0
0	12172	3097.702523053833	1
0	12173	3097.714114173781	0
0	12180	3102.872318588511	1
0	12181	3102.977581671223	0
0	12268	3132.784849267328	1
0	12270	3132.792693401514	2
0	12271	3132.837890843807	1
0	12273	3132.845130715185	0
0	12284	3135.439054580623	1
0	12285	3135.44252806285	0
0	12360	3157.288565023865	1
0	12362	3157.560593539471	2
0	12363	3157.617870426579	1
0	12365	3157.698237359268	0
0	12372	3159.247054312389	1
0	12373	3159.904700530363	0
0	12376	3160.159593941909	1
0	12377	3160.228788090303	0
0	12384	3160.501430457211	1
0	12385	3160.655999377861	0
0	12404	3166.306649878491	1
0	12405	3166.584461657339	0
0	12424	3169.743015935797	1
0	12425	3169.792732728119	0
0	12432	3170.546216702939	1
0	12434	3170.905964342965	2
0	12436	3171.082392734035	3
0	12437	3171.188369639735	2
0	12439	3171.251969251753	1
0	12441	3171.529118423966	0
0	12472	3176.344082176384	1
0	12473	3176.565683868896	0
0	12480	3177.311781481158	1
0	12481	3177.424555596981	0
0	12484	3177.529870449852	1
0	12486	3177.707774050283	2
0	12487	3177.70809961767	1
0	12490	3177.771034115861	2
0	12491	3177.788146258812	1
0	12493	3178.101725326788	0
0	12532	3191.090294213562	1
0	12533	3191.33258101414	0
0	12552	3198.180591327551	1
0	12554	3198.191441991564	2
0	12556	3198.324357131167	3
0	12558	3198.475141735223	4
0	12560	3198.559256070747	5
0	12561	3198.767612416255	4
0	12564	3199.051732530868	5
0	12565	3199.089230303683	4
0	12567	3199.124618525248	3
0	12569	3199.153244910751	2
0	12571	3199.196521829729	1
0	12573	3199.366474171132	0
0	12592	3204.142893042895	1
0	12594	3204.224900297289	2
0	12595	3204.499003672341	1
0	12597	3204.872919691363	0
0	12636	3217.322893212405	1
0	12637	3217.61785159641	0
0	12668	3221.761608872067	1
0	12669	3222.116332353856	0
0	12696	3231.196681317866	1
0	12697	3231.200398107021	0
0	12728	3235.888826282614	1
0	12729	3235.94181955787	0
0	12784	3253.107768624443	1
0	12785	3253.112923680677	0
0	12800	3255.996085357346	1
0	12801	3256.057635387772	0
0	12812	3258.100814593548	1
0	12813	3258.128541999064	0
0	12828	3261.771431743848	1
0	12829	3261.87152017126	0
0	12852	3268.39996702093	1
0	12853	3268.475653636353	0
0	12864	3269.598494663829	1
0	12865	3269.605651147171	0
0	12872	3270.278827791526	1
0	12873	3270.349904531856	0
0	12880	3271.585556176025	1
0	12881	3271.58954611082	0
0	12884	3271.626534780857	1
0	12885	3271.69858099276	0
0	12900	3277.372639027865	1
0	12901	3277.822411565559	0
0	12908	3278.996449373755	1
0	12909	3279.063194179903	0
0	12912	3279.219580429651	1
0	12913	3279.324332916159	0
0	12948	3294.288674528914	1
0	12949	3294.377155897761	0
0	12968	3298.018688811649	1
0	12970	3298.247431423179	2
0	12971	3298.485209483309	1
0	12973	3298.955917052568	0
0	12992	3303.54591934727	1
0	12993	3303.845763258471	0
0	13016	3309.234555011776	1
0	13017	3309.262900725138	0
0	13028	3311.438102493015	1
0	13029	3311.494719403924	0
0	13040	3313.280769629821	1
0	13041	3313.559476718813	0
0	13044	3313.57290670819	1
0	13045	3313.738075900701	0
0	13048	3313.744195098341	1
0	13050	3314.052161551644	2
0	13051	3314.438795201586	1
0	13053	3314.457439907323	0
0	13076	3324.09421785585	1
0	13077	3324.635255711065	0
0	13084	3324.942904808522	1
0	13085	3324.977088081871	0
0	13096	3326.551415580447	1
0	13097	3326.742604575807	0
0	13144	3336.709731562784	1
0	13145	3336.850095209874	0
0	13156	3341.436954886057	1
0	13157	3341.829304896056	0
0	13160	3341.938173296252	1
0	13161	3341.946030515668	0
0	13188	3353.189518953682	1
0	13189	3353.679172649719	0
0	13224	3363.890511537792	1
0	13225	3363.987098076525	0
0	13232	3365.883570247331	1
0	13233	3365.915652112688	0
0	13256	3373.71514257897	1
0	13257	3374.472646524008	0
0	13288	3379.505592100911	1
0	13289	3379.848335507254	0
0	13296	3381.116986753931	1
0	13297	3381.126344248711	0
0	13312	3384.654169393026	1
0	13313	3384.816654383629	0
0	13332	3390.379007803912	1
0	13333	3390.456362563435	0
0	13344	3393.693050720143	1
0	13345	3394.562015021345	0
0	13348	3394.802466276865	1
0	13349	3394.919475131344	0
0	13360	3395.611979531476	1
0	13362	3395.656765378764	2
0	13363	3396.14101491263	1
0	13366	3396.150381234799	2
0	13368	3396.49764473164	3
0	13369	3396.530706644896	2
0	13371	3396.606764209177	1
0	13373	3396.862627513635	0
0	13380	3399.378532015039	1
0	13382	3399.379445346751	2
0	13383	3399.827112357843	1
0	13385	3399.917456209153	0
0	13408	3406.7912167948	1
0	13410	3406.797295773219	2
0	13412	3406.827172918014	3
0	13413	3406.998752167023	2
0	13415	3407.020041339006	1
0	13417	3407.394180933535	0
0	13448	3412.474368766062	1
0	13449	3412.625476813014	0
0	13452	3412.846217850014	1
0	13454	3414.081679543324	2
0	13455	3414.542181042812	1
0	13457	3414.752681330025	0
0	13496	3429.665275221892	1
0	13497	3429.677326606979	0
0	13512	3432.836928714125	1
0	13513	3432.951935076391	0
0	13528	3438.995941735767	1
0	13529	3439.192893372327	0
0	13572	3450.261652582335	1
0	13573	3450.373543410609	0
0	13604	3459.062066264	1
0	13605	3459.479184736408	0
0	13640	3468.62904636429	1
0	13642	3468.834820478314	2
0	13643	3468.917753325329	1
0	13645	3468.959854991735	0
0	13668	3473.386505677647	1
0	13670	3473.445148306991	2
0	13671	3473.594026310296	1
0	13673	3473.599155839733	0
0	13696	3478.062145448077	1
0	13697	3478.080668111665	0
0	13748	3492.020022658575	1
0	13749	3492.049937603935	0
0	13784	3497.260009206915	1
0	13785	3497.30056885114	0
0	13816	3503.977182053486	1
0	13817	3504.156295511766	0
0	13832	3510.16652557907	1
0	13833	3510.257215505875	0
0	13864	3521.122112262941	1
0	13865	3521.140872383459	0
0	13888	3532.111941187997	1
0	13890	3532.142294492219	2
0	13891	3532.440571458341	1
0	13894	3532.441712733102	2
0	13896	3532.662558296607	3
0	13897	3532.681810211692	2
0	13899	3532.737687339846	1
0	13901	3533.19208093203	0
0	13908	3534.717366116787	1
0	13909	3534.946598573713	0
0	13932	3540.108307207233	1
0	13933	3540.164386093405	0
0	13940	3541.17698140838	1
0	13941	3541.353844512116	0
0	13948	3542.627202084204	1
0	13949	3542.634400559348	0
0	13968	3553.061307573618	1
0	13969	3553.266216281014	0
0	13996	3563.034410950085	1
0	13997	3563.118449226272	0
0	14032	3573.439613011562	1
0	14033	3573.452589369714	0
0	14040	3575.351983577532	1
0	14041	3575.396942197442	0
0	14184	3604.951727946199	1
0	14185	3605.083690552097	0
0	14196	3605.595789473102	1
0	14197	3605.627415788136	0
0	14224	3613.002010373077	1
0	14226	3613.319552353359	2
0	14227	3613.369343571397	1
0	14229	3613.533874428965	0
0	14256	3620.812534494091	1
0	14257	3620.882033590018	0
0	14260	3620.895003100355	1
0	14261	3620.91336799713	0
0	14296	3632.074154851348	1
0	14297	3632.081649429792	0
0	14316	3637.183534118686	1
0	14317	3637.245210378949	0
0	14340	3646.444095646292	1
0	14342	3646.553958376309	2
0	14343	3646.582984243915	1
0	14345	3646.814408145564	0
0	14412	3664.436966518213	1
0	14413	3664.545918647434	0
0	14464	3678.77567137464	1
0	14465	3678.783018535922	0
0	14484	3682.776767223554	1
0	14485	3682.790229595171	0
0	14516	3692.854294526265	1
0	14518	3692.894479233875	2
0	14520	3692.902712174473	3
0	14522	3692.923951600435	4
0	14523	3693.01182083891	3
0	14526	3693.17431288419	4
0	14527	3693.5590596554	3
0	14529	3693.598485488911	2
0	14531	3693.631493639695	1
0	14533	3694.01679323466	0
0	14548	3696.891161410878	1
0	14549	3697.24713024693	0
0	14576	3704.985065535772	1
0	14577	3705.58343862082	0
0	14588	3708.733391482939	1
0	14590	3708.774953411451	2
0	14591	3708.791085396306	1
0	14593	3708.832909278607	0
0	14604	3712.758338753135	1
0	14605	3712.842786607501	0
0	14620	3716.493167568068	1
0	14621	3716.940497287322	0
0	14624	3717.360554430146	1
0	14625	3717.397502902533	0
0	14684	3731.978840405515	1
0	14685	3732.640477732009	0
0	14692	3734.173327658632	1
0	14693	3734.25159632431	0
0	14704	3736.847540691338	1
0	14705	3736.85189767529	0
0	14768	3748.391231038499	1
0	14770	3748.674460438761	2
0	14771	3748.731738474584	1
0	14773	3748.838684143387	0
0	14828	3770.307901431562	1
0	14829	3770.31801034956	0
0	14840	3772.654230172177	1
0	14841	3772.736117500362	0
0	14844	3772.750781477124	1
0	14845	3773.019672129648	0
0	14856	3774.168334682706	1
0	14857	3774.197527831834	0
0	14952	3795.32809989737	1
0	14953	3795.385527758904	0
0	14980	3809.461145473846	1
0	14981	3809.487878587358	0
0	14992	3812.380944551635	1
0	14993	3812.863750706045	0
0	15000	3813.911834742748	1
0	15001	3814.318861534368	0
0	15008	3815.075831750893	1
0	15010	3815.18167681897	2
0	15011	3815.329426256519	1
0	15013	3815.39722967513	0
0	15020	3818.491402178198	1
0	15021	3818.492481691232	0
0	15028	3819.266813920458	1
0	15029	3819.27532905723	0
0	15032	3819.763846773894	1
0	15033	3820.366682497525	0
0	15052	3830.510424221923	1
0	15053	3830.967035601787	0
0	15060	3832.619953555871	1
0	15061	3832.665111223304	0
0	15116	3848.700343695746	1
0	15117	3848.733645443615	0
0	15144	3857.858372873256	1
0	15145	3858.178934850039	0
0	15152	3859.644422913177	1
0	15154	3859.658692979147	2
0	15155	3859.759305264427	1
0	15158	3859.901801213128	2
0	15159	3859.94832607061	1
0	15161	3860.173813310315	0
0	15188	3868.561775411662	1
0	15189	3868.827494433731	0
0	15204	3876.46767652827	1
0	15205	3876.500568593361	0
0	15208	3876.568694279221	1
0	15209	3876.58191505703	0
0	15216	3877.481476169477	1
0	15217	3877.793456170214	0
0	15236	3882.609365116314	1
0	15238	3882.799082916656	2
0	15239	3883.571327009901	1
0	15241	3883.944341039415	0
0	15244	3883.973914109014	1
0	15245	3884.090962633288	0
0	15284	3891.985278275355	1
0	15285	3892.060035544278	0
0	15292	3892.84462796465	1
0	15293	3892.992355976674	0
0	15320	3899.610739720014	1
0	15321	3899.783771186158	0
0	15396	3925.776185042329	1
0	15397	3925.882883463695	0
0	15416	3928.288050237598	1
0	15417	3928.418195631431	0
0	15428	3929.75656470593	1
0	15429	3930.154941235552	0
0	15436	3931.088277268662	1
0	15437	3931.091851326533	0
0	15472	3937.541029707904	1
0	15473	3937.571501489662	0
0	15528	3951.575385316256	1
0	15529	3951.853348886352	0
0	15564	3959.129757872157	1
0	15565	3959.187352819845	0
0	15572	3959.82672963643	1
0	15573	3959.916322838509	0
0	15652	3983.059894945778	1
0	15653	3983.078791009229	0
0	15728	4003.297045664172	1
0	15729	4003.359110674552	0
0	15760	4011.476685304248	1
0	15761	4011.557068487895	0
0	15764	4011.828674974716	1
0	15765	4011.946546701958	0
0	15796	4016.096445189033	1
0	15797	4016.202376567622	0
0	15804	4017.157487160168	1
0	15806	4017.300724847436	2
0	15807	4017.411466575216	1
0	15809	4017.619641158382	0
0	15812	4017.63488081152	1
0	15813	4017.754016960221	0
0	15860	4032.590759769619	1
0	15861	4032.70894636505	0
0	15904	4045.735173233657	1
0	15905	4045.998383624925	0
0	15920	4053.590182907328	1
0	15921	4053.683622883773	0
0	15940	4059.652756357883	1
0	15942	4059.724602724184	2
0	15943	4059.747997234167	1
0	15946	4059.753518157712	2
0	15948	4059.81491702391	3
0	15949	4059.927865580723	2
0	15951	4060.022296035494	1
0	15953	4060.149469270004	0
0	16004	4075.879757666469	1
0	16005	4076.012943071178	0
0	16024	4079.928344574478	1
0	16025	4079.936848710311	0
0	16036	4081.519546794065	1
0	16037	4081.98960889772	0
0	16040	4081.998833044472	1
0	16041	4082.033025951101	0
0	16052	4085.569612584245	1
0	16053	4085.684595512318	0
0	16068	4090.774931481541	1
0	16069	4090.909603795184	0
0	16084	4093.568668324455	1
0	16085	4093.856796618784	0
0	16088	4093.859452606028	1
0	16089	4094.084152926101	0
0	16188	4116.849784993998	1
0	16190	4116.857183283278	2
0	16192	4117.036724911465	3
0	16193	4117.141196027751	2
0	16195	4117.199604061574	1
0	16198	4117.329821371428	2
0	16199	4117.368986563244	1
0	16201	4117.52081556783	0
0	16232	4130.346099612264	1
0	16233	4130.5335229374	0
0	16272	4144.996905829946	1
0	16273	4145.139144710561	0
0	16316	4155.779996221333	1
0	16317	4155.906250537	0
0	16348	4162.202222570514	1
0	16350	4162.402273888399	2
0	16351	4162.862745877439	1
0	16353	4163.115994520128	0
0	16388	4171.752085509689	1
0	16389	4171.90291792736	0
0	16428	4181.635567418403	1
0	16429	4181.699897754858	0
0	16464	4188.483011903482	1
0	16465	4188.50804449255	0
0	16504	4201.45430755891	1
0	16505	4201.555834406382	0
0	16532	4208.19663484586	1
0	16533	4208.297297887027	0
0	16544	4210.820944173604	1
0	16545	4210.85772967167	0
0	16552	4211.872804973562	1
0	16553	4212.045728878524	0
0	16560	4212.815470611526	1
0	16562	4212.903983604737	2
0	16563	4212.936971553118	1
0	16565	4212.979112431986	0
0	16604	4224.014447286379	1
0	16606	4224.102678863849	2
0	16607	4224.197420391494	1
0	16610	4224.367090084481	2
0	16611	4224.429213685363	1
0	16614	4224.467686075848	2
0	16615	4224.468234230359	1
0	16617	4224.579083595151	0
0	16692	4243.982908689138	1
0	16693	4244.025971390172	0
0	16736	4263.489312933478	1
0	16737	4263.568310705574	0
0	16760	4268.754174811504	1
0	16761	4268.880561493258	0
0	16824	4281.099289441288	1
0	16825	4281.84389738026	0
0	16832	4282.046022550746	1
0	16833	4282.352324948067	0
0	16860	4288.122447818845	1
0	16861	4288.217650369269	0
0	16876	4290.85056593665	1
0	16877	4290.922128468953	0
0	16884	4291.327543346241	1
0	16885	4291.822359602112	0
0	16892	4294.674751047922	1
0	16893	4294.750477801275	0
0	16904	4296.90206515241	1
0	16906	4297.013686196819	2
0	16907	4297.129846528853	1
0	16909	4297.283507700476	0
0	16956	4310.603235266712	1
0	16958	4310.729049518717	2
0	16959	4310.926385157425	1
0	16961	4311.020840674236	0
0	16984	4317.562330789783	1
0	16986	4317.718843288442	2
0	16987	4317.778268645911	1
0	16989	4318.064665299375	0
0	17020	4327.27198234104	1
0	17021	4327.298600186964	0
0	17024	4327.443895333328	1
0	17025	4327.670906820272	0
0	17044	4333.22019782243	1
0	17045	4333.227364814178	0
0	17052	4334.422515907941	1
0	17053	4334.631535261311	0
0	17064	4338.424065939997	1
0	17065	4338.427249884607	0
0	17080	4341.524365297244	1
0	17081	4341.61447775665	0
0	17100	4347.704738201907	1
0	17101	4347.875526352069	0
0	17136	4354.93514375415	1
0	17137	4354.958193982868	0
0	17152	4357.227573258576	1
0	17153	4357.481727346744	0
0	17192	4368.900448730207	1
0	17193	4369.20539748466	0
0	17212	4373.369825847371	1
0	17213	4373.632307962628	0
0	17252	4383.19011153328	1
0	17253	4383.284239125047	0
0	17344	4411.643673054928	1
0	17345	4411.739968191468	0
0	17364	4417.135280576641	1
0	17366	4417.164142440108	2
0	17367	4417.427149310509	1
0	17369	4417.709735420726	0
0	17372	4417.862165004819	1
0	17373	4418.299398955533	0
0	17528	4453.83778812592	1
0	17529	4453.87515193442	0
0	17540	4456.293414405198	1
0	17541	4456.344827317803	0
0	17552	4458.830239838584	1
0	17554	4458.933571475411	2
0	17555	4458.978920273259	1
0	17557	4459.007645931277	0
0	17656	4488.547196015979	1
0	17657	4488.593853948422	0
0	17724	4502.675885323928	1
0	17725	4502.869786985523	0
0	17748	4511.172624586463	1
0	17749	4511.329746705293	0
0	17756	4514.353251855502	1
0	17757	4514.573879542077	0
0	17784	4518.283648404497	1
0	17785	4518.317129105909	0
0	17792	4519.775530009264	1
0	17793	4519.982211518532	0
0	17820	4533.036256206183	1
0	17822	4533.063791217901	2
0	17823	4533.313289773309	1
0	17825	4533.38115417101	0
0	17832	4534.785199489494	1
0	17833	4534.853271781506	0
0	17880	4546.813542887957	1
0	17881	4546.954942083951	0
0	17888	4548.585395393561	1
0	17889	4548.752905313572	0
0	17900	4552.583569880926	1
0	17901	4552.709830734986	0
0	17916	4554.660799281367	1
0	17917	4554.676745257176	0
0	17936	4560.287162887453	1
0	17937	4560.455647053864	0
0	17968	4565.045928021648	1
0	17969	4565.096774053738	0
0	18004	4573.781962598525	1
0	18005	4573.861787481069	0
0	18044	4584.844241548169	1
0	18045	4584.903934600098	0
0	18068	4593.953363683459	1
0	18069	4594.051720653733	0
0	18084	4600.163344429285	1
0	18085	4600.325733800661	0
0	18164	4619.492520845913	1
0	18166	4619.493841810942	2
0	18167	4619.529466308926	1
0	18169	4620.114394799333	0
0	18176	4622.391249083778	1
0	18177	4622.81295911203	0
0	18264	4644.17343217063	1
0	18265	4644.226926969508	0
0	18320	4656.757475620884	1
0	18321	4656.942714018145	0
0	18352	4665.150815863896	1
0	18353	4665.571465292301	0
0	18368	4669.465886836847	1
0	18369	4669.851768154561	0
0	18380	4670.641141166937	1
0	18381	4671.093765544829	0
0	18404	4676.045286267898	1
0	18405	4676.109335631968	0
0	18424	4680.778700925041	1
0	18425	4681.256248270516	0
0	18436	4683.912298732384	1
0	18437	4684.028716568134	0
0	18460	4687.192486238719	1
0	18461	4687.248114157263	0
0	18500	4702.502781044942	1
0	18501	4702.796458807016	0
0	18516	4707.43576167734	1
0	18517	4707.548053541564	0
0	18520	4707.665770861664	1
0	18522	4708.027264649976	2
0	18523	4708.036770806303	1
0	18525	4708.037390089173	0
0	18532	4710.524870115421	1
0	18533	4710.716596325556	0
0	18540	4711.599365596387	1
0	18541	4711.606255389165	0
0	18544	4711.706141895592	1
0	18545	4711.760585692454	0
0	18564	4716.502465190616	1
0	18566	4716.756650108643	2
0	18567	4716.975765871412	1
0	18569	4716.984731620947	0
0	18592	4725.11525713062	1
0	18593	4725.60428039844	0
0	18604	4726.419930211776	1
0	18605	4726.42716410368	0
0	18648	4739.420613499333	1
0	18649	4740.010544783073	0
0	18656	4741.55956797546	1
0	18657	4741.955691265467	0
0	18680	4747.57126317256	1
0	18681	4747.803366833317	0
0	18724	4758.607056402664	1
0	18725	4758.745594535961	0
0	18744	4769.512334345417	1
0	18745	4769.557138796978	0
0	18752	4770.209649478337	1
0	18753	4770.255241526488	0
0	18788	4780.767144094917	1
0	18789	4781.134150558437	0
0	18792	4781.209670773748	1
0	18794	4781.275886301579	2
0	18796	4781.34222311141	3
0	18797	4781.357806329958	2
0	18799	4781.57965867346	1
0	18801	4781.642287786254	0
0	18824	4786.858490401413	1
0	18825	4787.153599838559	0
0	18876	4799.214199090203	1
0	18877	4799.258779236588	0
0	18880	4799.488580396604	1
0	18881	4799.97056659079	0
0	18904	4805.384216851852	1
0	18905	4805.455287051541	0
0	18920	4809.023443125227	1
0	18921	4809.075312601475	0
0	18924	4809.223865936838	1
0	18925	4809.30075678233	0
0	19004	4827.885135598876	1
0	19005	4827.901341274154	0
0	19096	4848.548208552458	1
0	19097	4848.573515346271	0
0	19100	4848.645210271998	1
0	19101	4848.807298397021	0
0	19124	4852.988563253512	1
0	19125	4853.006238010822	0
0	19148	4857.877354708425	1
0	19150	4858.284242995247	2
0	19151	4858.595495743418	1
0	19153	4859.247379975431	0
0	19156	4859.355969664748	1
0	19158	4859.550320307576	2
0	19159	4859.650592035831	1
0	19161	4859.757286713384	0
0	19204	4870.450097573423	1
0	19206	4870.824125148817	2
0	19207	4870.929537226121	1
0	19209	4871.09755287918	0
0	19232	4876.315742956907	1
0	19233	4876.538347179446	0
0	19236	4876.55443968423	1
0	19238	4876.776070274183	2
0	19239	4876.829186449866	1
0	19241	4876.882449980044	0
0	19244	4877.139502539429	1
0	19245	4877.294477168958	0
0	19300	4889.092344403959	1
0	19301	4889.101237283242	0
0	19340	4898.518802910799	1
0	19341	4898.710636503569	0
0	19356	4902.766986532828	1
0	19357	4902.798244327846	0
0	19364	4903.017337610022	1
0	19365	4903.40601000962	0
0	19396	4909.134520351904	1
0	19397	4909.324381807676	0
0	19416	4912.985520209968	1
0	19417	4913.248211524464	0
0	19464	4930.266563706041	1
0	19465	4930.447379182709	0
0	19476	4935.484605040471	1
0	19477	4935.6957894477	0
0	19488	4937.762967755459	1
0	19489	4937.783115340644	0
0	19508	4941.873288618976	1
0	19509	4942.205230287267	0
0	19512	4942.4626799257	1
0	19513	4942.550307326443	0
0	19524	4943.904700851565	1
0	19526	4943.971613981606	2
0	19527	4944.730492537094	1
0	19529	4944.952063882948	0
0	19532	4945.042180623716	1
0	19533	4945.061329251767	0
0	19536	4945.258490364128	1
0	19537	4945.499223132607	0
0	19548	4948.750959602949	1
0	19549	4948.932314771636	0
0	19568	4952.773563155851	1
0	19569	4953.12332068797	0
0	19652	4984.715218935923	1
0	19653	4984.855597906032	0
0	19668	4986.932169865997	1
0	19670	4987.157112330901	2
0	19672	4987.249204767679	3
0	19674	4987.502315508875	4
0	19675	4987.574454912576	3
0	19678	4988.256828566672	4
0	19679	4988.455110656739	3
0	19681	4988.463618115511	2
0	19684	4988.482697422555	3
0	19685	4988.86903407911	2
0	19687	4988.91229912191	1
0	19689	4989.276567988191	0
0	19696	4991.421462094059	1
0	19697	4991.434818698276	0
0	19700	4991.56849294416	1
0	19701	4991.991305286423	0
0	19712	4993.409717449753	1
0	19713	4993.648729532149	0
0	19760	5009.486895375254	1
0	19761	5009.521740539051	0
0	19764	5009.653805906593	1
0	19765	5009.715905714354	0
0	19768	5009.865726727929	1
0	19769	5010.057311614333	0
0	19792	5017.912714869026	1
0	19793	5018.886718959085	0
0	19800	5019.771802863779	1
0	19801	5019.827632223957	0
0	19852	5031.437036837793	1
0	19853	5031.528662990452	0
0	19884	5039.955359443474	1
0	19885	5039.969770218431	0
0	19936	5057.755479399229	1
0	19937	5057.784564563068	0
0	19948	5066.36551320284	1
0	19949	5066.427617938959	0
0	19964	5069.914008972305	1
0	19965	5069.92118417585	0
0	19992	5075.81492782592	1
0	19993	5075.823091708484	0
0	20032	5086.072672580008	1
0	20033	5086.130163607041	0
0	20052	5091.217676917871	1
0	20053	5091.256712772181	0
0	20060	5092.922256894692	1
0	20061	5093.022227670201	0
0	20104	5108.731656130071	1
0	20105	5108.73430945548	0
0	20116	5112.04157521545	1
0	20117	5112.154291005211	0
0	20132	5114.795246772656	1
0	20133	5114.901413069048	0
0	20196	5131.707770697677	1
0	20197	5131.786432526919	0
0	20220	5139.827559959371	1
0	20222	5139.939239311601	2
0	20223	5140.067098151874	1
0	20225	5140.192024523901	0
0	20428	5203.223529280818	1
0	20429	5203.53882759099	0
0	20476	5218.305595671186	1
0	20477	5218.320443652529	0
0	20492	5220.664494667065	1
0	20493	5220.737492522455	0
0	20512	5228.369073026007	1
0	20513	5228.526019292439	0
0	20516	5228.638612940017	1
0	20517	5229.056236078408	0
0	20620	5271.563650998729	1
0	20621	5271.940139996504	0
0	20648	5279.782461819672	1
0	20649	5279.861235347508	0
0	20664	5280.939349375546	1
0	20666	5281.278219842536	2
0	20668	5281.433671719704	3
0	20669	5281.675759007602	2
0	20671	5281.806173468886	1
0	20673	5282.323805982105	0
0	20712	5292.307517914236	1
0	20713	5292.314284377274	0
0	20788	5314.50028997838	1
0	20789	5314.515804175107	0
0	20836	5328.653458583519	1
0	20837	5328.823288442343	0
0	20852	5330.301354175894	1
0	20853	5330.329659373256	0
0	20884	5337.152090989844	1
0	20885	5337.244210473325	0
0	20912	5347.495055929971	1
0	20913	5347.503791922012	0
0	20928	5351.524218839349	1
0	20929	5351.527477506436	0
0	20960	5361.702701727233	1
0	20962	5361.931734165961	2
0	20963	5362.127116696083	1
0	20965	5362.127868544978	0
0	20984	5368.41916699018	1
0	20985	5368.487700852958	0
0	20992	5371.208881269929	1
0	20994	5371.232147090081	2
0	20995	5371.353374285211	1
0	20997	5371.40092331679	0
0	21016	5375.381688462346	1
0	21017	5375.58319906322	0
0	21020	5375.627784904521	1
0	21021	5375.944223506251	0
0	21044	5379.515288503291	1
0	21045	5379.908892196999	0
0	21100	5393.494021938447	1
0	21101	5393.627824294441	0
0	21112	5398.172607654092	1
0	21114	5398.405119097806	2
0	21115	5398.613863913748	1
0	21117	5399.035032076019	0
0	21144	5403.402514605773	1
0	21145	5403.571515009218	0
0	21176	5413.657296813999	1
0	21177	5413.845906947349	0
0	21180	5413.996652587154	1
0	21181	5414.091473009317	0
0	21200	5416.733310205598	1
0	21201	5416.901589065382	0
0	21204	5416.932424605372	1
0	21205	5416.952318481147	0
0	21220	5419.900785474857	1
0	21222	5419.969202508766	2
0	21223	5420.328577271615	1
0	21226	5420.563978171902	2
0	21227	5420.6169955287	1
0	21229	5420.636703011138	0
0	21248	5425.751522973201	1
0	21249	5425.930256086535	0
0	21256	5428.250719355709	1
0	21257	5428.356332147626	0
0	21328	5456.020883582279	1
0	21329	5456.040516404353	0
0	21364	5472.93869205169	1
0	21365	5473.043116921623	0
0	21380	5476.33732689242	1
0	21382	5476.414931322063	2
0	21383	5476.554033582236	1
0	21386	5476.731378377985	2
0	21387	5476.864147232183	1
0	21389	5477.031140438688	0
0	21432	5487.907485438085	1
0	21433	5488.036897088037	0
0	21452	5491.795309516655	1
0	21453	5491.86364991	0
0	21460	5493.919311826586	1
0	21462	5493.952999064997	2
0	21464	5494.191355545438	3
0	21465	5494.215323679954	2
0	21467	5494.309763209173	1
0	21469	5494.502192676392	0
0	21504	5506.897539471139	1
0	21505	5506.934589411916	0
0	21560	5527.252677605904	1
0	21562	5527.593049912122	2
0	21563	5527.834607570669	1
0	21565	5527.954141832689	0
0	21568	5528.141351727328	1
0	21569	5528.361141190423	0
0	21604	5535.854653494365	1
0	21605	5535.96992844562	0
0	21608	5536.054344929597	1
0	21609	5536.094306931976	0
0	21648	5546.473034381178	1
0	21649	5546.597399779917	0
0	21660	5549.350175822335	1
0	21661	5549.39830819542	0
0	21676	5551.697153784817	1
0	21677	5552.068267737453	0
0	21680	5552.136688022994	1
0	21681	5552.383783578318	0
0	21776	5590.890989842462	1
0	21777	5590.958727978933	0
0	21784	5591.710493975596	1
0	21785	5591.7249521792	0
0	21796	5592.980838933743	1
0	21797	5593.039740181297	0
0	21804	5594.406078701368	1
0	21806	5594.501590585843	2
0	21807	5594.569787049675	1
0	21809	5594.675328908566	0
0	21824	5598.510766574418	1
0	21825	5598.644346213447	0
0	21836	5603.252657674131	1
0	21838	5603.334570839088	2
0	21839	5603.569352988526	1
0	21841	5603.588359996635	0
0	21864	5610.958208489188	1
0	21865	5611.232666601556	0
0	21880	5612.491918722699	1
0	21881	5612.611971883415	0
0	21892	5617.191498634858	1
0	21894	5617.428178820048	2
0	21895	5617.581688397711	1
0	21897	5617.646735992759	0
0	21968	5640.766422138286	1
0	21969	5640.809718124302	0
0	21976	5641.98928371609	1
0	21977	5642.250334318099	0
0	21980	5642.443716366048	1
0	21981	5642.670547578414	0
0	22000	5648.567061688503	1
0	22002	5648.616153027555	2
0	22003	5648.622742870499	1
0	22005	5648.753322064906	0
0	22020	5651.041139921236	1
0	22021	5651.063242387814	0
0	22044	5655.153458723408	1
0	22045	5655.246333597316	0
0	22108	5672.258934158358	1
0	22109	5672.523997410383	0
0	22112	5672.532906320181	1
0	22113	5672.657105160625	0
0	22124	5675.453550144084	1
0	22125	5675.473746789314	0
0	22128	5675.633007075029	1
0	22129	5675.698580778254	0
0	22148	5679.045391538684	1
0	22149	5679.06973105528	0
0	22160	5683.691920513839	1
0	22161	5683.783949795501	0
0	22184	5688.275472686161	1
0	22185	5688.390998882086	0
0	22196	5690.254736568702	1
0	22197	5690.658672635913	0
0	22216	5696.352721465317	1
0	22217	5696.384532485659	0
0	22228	5699.149487721451	1
0	22229	5699.49070988394	0
0	22244	5701.706402328906	1
0	22245	5701.706786789271	0
0	22252	5702.157987285854	1
0	22253	5702.168977721598	0
0	22268	5707.619053032154	1
0	22269	5707.959627561652	0
0	22288	5713.642488814113	1
0	22289	5713.929913826222	0
0	22292	5714.062912157903	1
0	22293	5714.164319629584	0
0	22336	5727.208376505914	1
0	22338	5727.254356343605	2
0	22340	5727.259406220348	3
0	22342	5727.275773085377	4
0	22343	5727.306662365031	3
0	22346	5727.341143826926	4
0	22347	5727.370273520224	3
0	22349	5727.936906195076	2
0	22351	5727.994857822041	1
0	22353	5728.07324069177	0
0	22396	5738.512650501801	1
0	22397	5738.55372680605	0
0	22400	5738.579573862461	1
0	22401	5738.622937520414	0
0	22424	5745.444105983213	1
0	22425	5745.635901762119	0
0	22436	5752.398819460649	1
0	22437	5752.531253890899	0
0	22444	5753.589872516434	1
0	22446	5753.646757484105	2
0	22447	5753.758986915726	1
0	22450	5753.835046449769	2
0	22451	5753.849076197447	1
0	22453	5753.870280852107	0
0	22472	5758.982622671971	1
0	22473	5759.231104808012	0
0	22508	5770.024564783474	1
0	22509	5770.140662058666	0
0	22532	5778.036658245028	1
0	22533	5778.227412531317	0
0	22572	5790.416995018214	1
0	22573	5790.757703776453	0
0	22588	5798.91400167782	1
0	22589	5799.099979458881	0
0	22592	5799.268986436915	1
0	22594	5799.413453306785	2
0	22596	5799.657422105684	3
0	22597	5799.665409310151	2
0	22599	5799.685371553927	1
0	22601	5799.978305458271	0
0	22644	5816.548692687878	1
0	22645	5816.579691177184	0
0	22648	5816.615773929154	1
0	22649	5816.640280434514	0
0	22652	5816.784825112199	1
0	22653	5817.039635161841	0
0	22720	5841.159152904898	1
0	22721	5841.188306646919	0
0	22756	5849.314287755349	1
0	22758	5849.345764149669	2
0	22759	5849.488322993719	1
0	22761	5849.700438037077	0
0	22780	5854.653929235159	1
0	22781	5855.14109184995	0
0	22784	5855.241947687895	1
0	22785	5855.439738896884	0
0	22788	5855.569211654526	1
0	22789	5855.656692110698	0
0	22820	5860.765682789038	1
0	22822	5860.827034464505	2
0	22823	5860.895799855699	1
0	22825	5861.229078282662	0
0	22844	5865.166137714396	1
0	22846	5865.357115860044	2
0	22847	5865.365824115194	1
0	22849	5865.482531820188	0
0	22936	5889.920354650585	1
0	22937	5890.121238114301	0
0	22952	5895.778660720631	1
0	22953	5896.443564694878	0
0	22960	5898.185484724435	1
0	22961	5898.514368945253	0
0	22968	5898.722098247329	1
0	22969	5899.575099263653	0
0	22980	5900.211020863025	1
0	22981	5900.290694150839	0
0	23012	5914.193078736633	1
0	23014	5914.408815518536	2
0	23015	5914.478090122446	1
0	23017	5914.480145880866	0
0	23020	5914.553204957269	1
0	23022	5914.554152715908	2
0	23023	5914.653079434633	1
0	23025	5914.953269892318	0
0	23040	5921.207584041183	1
0	23041	5921.291916877925	0
0	23052	5924.29466728693	1
0	23053	5924.45761944578	0
0	23088	5933.633572234135	1
0	23089	5933.742433662602	0
0	23104	5936.303462016578	1
0	23105	5936.460589427755	0
0	23140	5950.869109300604	1
0	23141	5950.932129429017	0
0	23160	5953.982580080125	1
0	23161	5954.242217144196	0
0	23180	5959.997958874628	1
0	23181	5960.02238785849	0
0	23208	5964.576645089354	1
0	23209	5964.890040115157	0
0	23256	5980.650130808036	1
0	23257	5980.749342164812	0
0	23360	6007.709982485131	1
0	23361	6007.736855855548	0
0	23396	6017.390278281124	1
0	23397	6017.476442707741	0
0	23484	6039.01490303956	1
0	23485	6039.048029525648	0
0	23504	6043.997086672765	1
0	23505	6043.998223299192	0
0	23508	6044.493695556237	1
0	23509	6045.088712385209	0
0	23512	6045.098530693027	1
0	23514	6045.240394129948	2
0	23515	6045.432405663664	1
0	23517	6045.936810231415	0
0	23524	6047.86889371503	1
0	23525	6048.046592761387	0
0	23644	6081.07016736048	1
0	23645	6081.211471183311	0
0	23680	6089.581085078033	1
0	23682	6089.625500011178	2
0	23683	6090.172352752483	1
0	23685	6090.292871226931	0
0	23692	6090.681975770489	1
0	23693	6091.479362538896	0
0	23708	6093.496380571601	1
0	23709	6093.717009210847	0
0	23712	6093.740298367075	1
0	23714	6093.784381421372	2
0	23715	6093.923565202523	1
0	23717	6094.394750928139	0
0	23732	6096.476787363508	1
0	23733	6096.492764706228	0
0	23852	6130.543579108594	1
0	23853	6130.843475382401	0
0	23884	6135.136036060409	1
0	23885	6135.283952124165	0
0	23968	6158.272541299063	1
0	23969	6158.426683089028	0
0	23988	6161.018266879683	1
0	23989	6161.223964222751	0
0	24032	6174.956746428397	1
0	24034	6174.960162019856	2
0	24035	6175.16169277894	1
0	24037	6175.208303209807	0
0	24044	6176.952913994859	1
0	24045	6177.557424254167	0
0	24072	6187.692857600474	1
0	24073	6187.850316373458	0
0	24144	6213.294328115613	1
0	24145	6213.512665429482	0
0	24204	6237.870113919577	1
0	24205	6238.035807971072	0
0	24208	6238.107009067755	1
0	24209	6238.260350356747	0
0	24212	6238.305857662802	1
0	24213	6238.310539182671	0
0	24240	6243.529396702376	1
0	24241	6244.204315401735	0
0	24264	6250.014288983938	1
0	24265	6251.401827906734	0
0	24296	6257.586118625151	1
0	24297	6257.714171381207	0
0	24308	6259.856580674468	1
0	24309	6260.082482519201	0
0	24352	6269.16947085275	1
0	24353	6269.278916027732	0
0	24368	6271.661093058732	1
0	24369	6271.814841191681	0
0	24380	6272.361383339718	1
0	24381	6272.519333090936	0
0	24404	6276.056551982164	1
0	24405	6276.095252956531	0
0	24428	6280.605293866575	1
0	24429	6280.636070145406	0
0	24444	6282.02785027632	1
0	24445	6282.12194709215	0
0	24496	6296.532732765599	1
0	24497	6296.668624435601	0
0	24528	6306.91980195663	1
0	24529	6306.946869504218	0
0	24556	6312.431484978168	1
0	24558	6312.644970335456	2
0	24559	6312.697011502458	1
0	24561	6312.748626273764	0
0	24692	6352.745281007612	1
0	24693	6352.884852893149	0
0	24736	6365.846417103363	1
0	24737	6366.029065839581	0
0	24760	6371.739692189491	1
0	24761	6371.998489838191	0
0	24768	6372.375148220473	1
0	24770	6372.915857946724	2
0	24771	6373.094671418374	1
0	24773	6373.263084554893	0
0	24780	6375.084590832219	1
0	24781	6375.098795043531	0
0	24800	6378.683828050059	1
0	24801	6378.766104602587	0
0	24824	6382.3816511876	1
0	24825	6382.401659535321	0
0	24828	6382.637589250007	1
0	24829	6382.884313002291	0
0	24852	6386.948748274251	1
0	24853	6386.991448141673	0
0	24856	6386.996888760763	1
0	24857	6387.196844700431	0
0	24880	6391.268594246056	1
0	24881	6391.270524314294	0
0	24896	6395.581388878449	1
0	24897	6395.745303587586	0
0	24916	6400.423601224017	1
0	24917	6400.972664251956	0
0	24932	6404.920951307127	1
0	24933	6405.356008661066	0
0	24936	6405.4463803908	1
0	24938	6405.596401744907	2
0	24939	6405.688412000203	1
0	24941	6405.812270888334	0
0	24964	6410.063225129114	1
0	24965	6410.203392940827	0
0	24972	6410.816520253497	1
0	24973	6411.092967596456	0
0	25028	6423.112613760804	1
0	25029	6423.35981804808	0
0	25032	6423.497493328581	1
0	25033	6423.514562964275	0
0	25084	6437.57539309062	1
0	25085	6437.956058266985	0
0	25092	6438.273128174604	1
0	25094	6438.689274159138	2
0	25095	6438.82673482171	1
0	25097	6438.968328586869	0
0	25104	6439.321149860844	1
0	25106	6439.417484231886	2
0	25107	6439.94666787973	1
0	25109	6440.111865051453	0
0	25192	6463.781805511096	1
0	25193	6463.842778026815	0
0	25228	6471.208575355707	1
0	25229	6471.366013130884	0
0	25232	6471.635642222307	1
0	25233	6471.826644789305	0
0	25304	6490.459179320795	1
0	25305	6490.661849664911	0
0	25332	6496.598132268932	1
0	25333	6496.732611778364	0
0	25352	6499.860501405975	1
0	25353	6499.878475210737	0
0	25356	6499.895642749753	1
0	25357	6499.945302958842	0
0	25380	6509.353539421774	1
0	25382	6509.563844146802	2
0	25383	6509.59308364738	1
0	25385	6509.719898114298	0
0	25416	6517.627769576142	1
0	25417	6517.699001543859	0
0	25428	6518.318896173625	1
0	25429	6518.361224892268	0
0	25448	6523.851680040312	1
0	25449	6524.338863514577	0
0	25460	6526.183503058206	1
0	25461	6526.263811186752	0
0	25488	6531.717026806825	1
0	25489	6531.824813023778	0
0	25528	6540.150695444147	1
0	25529	6540.306099901811	0
0	25532	6540.462688571045	1
0	25533	6540.843917266891	0
0	25556	6545.256252201779	1
0	25557	6545.308434213568	0
0	25560	6545.350663158852	1
0	25562	6545.55616312261	2
0	25563	6545.83511591951	1
0	25565	6545.895842420102	0
0	25576	6548.022203083181	1
0	25577	6548.0631244637	0
0	25628	6561.495644896425	1
0	25629	6561.609129987711	0
0	25668	6568.465044152327	1
0	25670	6568.606465435845	2
0	25671	6568.739111342413	1
0	25673	6568.946280668559	0
0	25688	6572.589918553029	1
0	25689	6573.020076716138	0
0	25692	6574.070972782166	1
0	25693	6574.23556763696	0
0	25720	6578.409081893277	1
0	25721	6578.459557444668	0
0	25792	6596.09819616581	1
0	25793	6596.141818277522	0
0	25800	6596.412975337484	1
0	25801	6596.447247225221	0
0	25832	6604.163281212118	1
0	25833	6604.709352388148	0
0	25880	6614.583054287524	1
0	25881	6615.076520991144	0
0	25888	6619.32106797925	1
0	25889	6619.478251573359	0
0	25896	6620.145685559882	1
0	25897	6620.279043215154	0
0	25904	6620.612975530259	1
0	25905	6620.657261049708	0
0	25944	6632.164811414632	1
0	25945	6632.169153108477	0
0	26004	6645.799473352095	1
0	26005	6646.081163793631	0
0	26028	6647.785375262741	1
0	26029	6648.100271275773	0
0	26064	6654.989257782562	1
0	26065	6655.00176531297	0
0	26068	6655.024255776091	1
0	26069	6655.115017354431	0
0	26104	6665.287088270241	1
0	26105	6665.362380086628	0
0	26108	6665.502901709029	1
0	26109	6665.562572423855	0
0	26132	6671.37609225669	1
0	26133	6671.87453949311	0
0	26136	6671.924884347495	1
0	26137	6672.093503728855	0
0	26152	6675.024468040297	1
0	26153	6675.064640425272	0
0	26164	6676.00050504461	1
0	26165	6676.005313098477	0
0	26188	6680.264128767944	1
0	26190	6680.828632637233	2
0	26191	6680.982389800503	1
0	26193	6680.995964470963	0
0	26196	6680.996148490535	1
0	26197	6681.028566476594	0
0	26216	6682.933873983499	1
0	26217	6683.007711209123	0
0	26220	6683.074823383548	1
0	26221	6683.177459035366	0
0	26272	6697.777617916367	1
0	26273	6697.792986136272	0
0	26280	6698.40150034655	1
0	26282	6698.747499630015	2
0	26283	6698.971346519372	1
0	26285	6699.190698829708	0
0	26320	6704.402432536077	1
0	26321	6704.482651743351	0
0	26344	6711.464550565879	1
0	26345	6711.517179216368	0
0	26348	6711.685766415089	1
0	26349	6711.754200363543	0
0	26384	6719.823785766695	1
0	26385	6719.84271593431	0
0	26436	6732.811855400008	1
0	26437	6732.842191127879	0
0	26468	6739.34847689805	1
0	26469	6739.356547744353	0
0	26492	6745.746430702671	1
0	26493	6745.844866532417	0
0	26524	6758.349617598381	1
0	26525	6758.442944288093	0
0	26532	6761.775913571294	1
0	26533	6762.037894034395	0
0	26552	6766.089441983906	1
0	26553	6766.124584836076	0
0	26576	6772.371041363922	1
0	26577	6772.54430371457	0
0	26580	6772.569943174258	1
0	26581	6772.61940652042	0
0	26640	6783.810856523976	1
0	26641	6783.888835550211	0
0	26656	6789.362893196442	1
0	26657	6789.46172239449	0
0	26668	6792.258753647472	1
0	26670	6792.819003055069	2
0	26671	6793.019426738967	1
0	26673	6793.019878637556	0
0	26700	6797.463352067904	1
0	26701	6797.654593875625	0
0	26708	6799.991372808537	1
0	26709	6799.997340614529	0
0	26720	6800.784539623164	1
0	26721	6800.970075630123	0
0	26728	6801.058972403275	1
0	26729	6801.2283319354	0
0	26788	6814.157238595446	1
0	26789	6814.226903140711	0
0	26792	6814.279921086549	1
0	26793	6814.281561035484	0
0	26800	6815.283850023456	1
0	26801	6815.287975892976	0
0	26828	6825.22325813722	1
0	26830	6825.348809873969	2
0	26832	6825.393227832398	3
0	26833	6825.397844068216	2
0	26835	6825.45813060233	1
0	26837	6825.590444125916	0
0	26848	6827.887470348278	1
0	26850	6827.925254351246	2
0	26851	6827.939586508459	1
0	26853	6828.051409465812	0
0	26864	6830.514761481861	1
0	26865	6830.539273402913	0
0	26868	6830.979308788062	1
0	26870	6830.982927458206	2
0	26872	6831.004209319896	3
0	26874	6831.147325620978	4
0	26875	6831.156865506051	3
0	26877	6831.161927884996	2
0	26879	6831.285123737278	1
0	26882	6831.31295892879	2
0	26884	6831.642421578093	3
0	26886	6831.705765405255	4
0	26887	6831.709649033388	3
0	26889	6831.874103092886	2
0	26892	6832.05299840936	3
0	26893	6832.659492509735	2
0	26895	6832.668538115887	1
0	26897	6832.669422007324	0
0	26944	6841.611551955367	1
0	26945	6842.052196721017	0
0	26956	6843.009330085027	1
0	26957	6843.049099517661	0
0	27028	6858.868250114511	1
0	27029	6858.960415681675	0
0	27056	6867.001809505194	1
0	27057	6867.223361093546	0
0	27100	6885.725219807528	1
0	27102	6886.422927351385	2
0	27103	6886.431720791553	1
0	27106	6886.646448202526	2
0	27107	6886.687181342779	1
0	27110	6886.730812815557	2
0	27111	6886.966932789071	1
0	27113	6887.07551033894	0
0	27132	6894.261494053004	1
0	27133	6894.327329349147	0
0	27136	6894.41361194798	1
0	27137	6894.515371428875	0
0	27152	6897.591321100405	1
0	27154	6897.694168838687	2
0	27155	6897.765786113303	1
0	27157	6897.93906010147	0
0	27160	6897.968739250774	1
0	27161	6898.02507865247	0
0	27216	6911.975700948288	1
0	27217	6912.076208823641	0
0	27228	6914.006778322245	1
0	27229	6914.144514238689	0
0	27240	6915.367874415279	1
0	27241	6915.426019200389	0
0	27280	6923.508554042593	1
0	27281	6923.766081709692	0
0	27360	6945.326410872168	1
0	27361	6946.18350217369	0
0	27400	6956.599182134457	1
0	27402	6956.71018704677	2
0	27403	6956.929466488858	1
0	27405	6957.113266293408	0
0	27424	6961.788618514558	1
0	27425	6961.8031903765	0
0	27452	6968.73332148681	1
0	27453	6968.776827764884	0
0	27456	6968.824749729415	1
0	27457	6968.929879095176	0
0	27504	6980.184299106241	1
0	27505	6980.551768711944	0
0	27512	6981.190466324937	1
0	27513	6981.225954539679	0
0	27532	6988.174516531792	1
0	27533	6988.297433837377	0
0	27544	6991.091817036131	1
0	27545	6991.384251023786	0
0	27568	6998.192675850343	1
0	27569	6998.50779902046	0
0	27588	7005.510237762228	1
0	27589	7005.885641014076	0
0	27596	7007.788363719323	1
0	27597	7008.028674955023	0
0	27624	7019.63666963419	1
0	27626	7019.660988703025	2
0	27627	7019.680461968793	1
0	27629	7019.687199660799	0
0	27636	7020.464246655581	1
0	27637	7020.687687181265	0
0	27640	7020.704463982882	1
0	27641	7021.287151267713	0
0	27656	7023.071236894081	1
0	27657	7023.078199410839	0
0	27700	7028.974893161169	1
0	27701	7029.074632687364	0
0	27716	7030.91173309507	1
0	27717	7031.092646655863	0
0	27720	7031.109088855968	1
0	27721	7031.12360534751	0
0	27752	7036.819683745839	1
0	27754	7036.937774956264	2
0	27755	7036.974668715253	1
0	27758	7036.98449049183	2
0	27759	7037.187241289729	1
0	27761	7037.530004878397	0
0	27780	7041.198438044918	1
0	27781	7041.284226466484	0
0	27808	7049.089290619435	1
0	27809	7049.14276579356	0
0	27848	7062.429001451922	1
0	27849	7062.523570576433	0
0	27884	7067.778886228615	1
0	27885	7067.78388479853	0
0	27900	7074.935261783779	1
0	27901	7075.00793859149	0
0	27912	7076.175783854254	1
0	27913	7076.272409693541	0
0	27936	7083.734890061886	1
0	27937	7083.860360622924	0
0	27952	7085.772893434863	1
0	27954	7085.817438040878	2
0	27955	7085.94673791264	1
0	27957	7085.951798999972	0
0	27984	7093.133703888773	1
0	27985	7093.145016759946	0
0	27988	7093.148106055832	1
0	27990	7093.160299341458	2
0	27991	7093.490315655309	1
0	27993	7093.658975146767	0
0	28008	7099.362909280476	1
0	28009	7099.473471331831	0
0	28012	7099.780281619872	1
0	28013	7099.909683271458	0
0	28020	7100.554327695852	1
0	28021	7100.779522810162	0
0	28044	7109.696445665493	1
0	28045	7109.730135325506	0
0	28116	7144.11803512814	1
0	28117	7144.220577630904	0
0	28132	7148.714237162874	1
0	28133	7148.741170853554	0
0	28156	7154.193559046866	1
0	28157	7154.202463202699	0
0	28236	7176.865031570963	1
0	28237	7177.188663387208	0
0	28240	7177.324527613743	1
0	28242	7177.508319982143	2
0	28243	7177.595739023289	1
0	28245	7177.657557431851	0
0	28248	7177.679577986008	1
0	28249	7177.783529062924	0
0	28260	7180.589392963353	1
0	28261	7180.751807746469	0
0	28268	7181.029813938367	1
0	28269	7181.069805536376	0
0	28272	7181.082637794243	1
0	28273	7181.520781883657	0
0	28316	7188.930753849047	1
0	28317	7189.073201564258	0
0	28336	7192.075137435325	1
0	28337	7192.142039486366	0
0	28368	7195.824201006764	1
0	28369	7195.981710709687	0
0	28384	7199.972739473965	1
0	28385	7199.996114601647	0
0	28424	7209.280241602547	1
0	28425	7209.345852830733	0
0	28460	7219.593896209105	1
0	28461	7219.666599406088	0
0	28504	7235.036301287941	1
0	28505	7235.337538498612	0
0	28520	7236.718338451904	1
0	28522	7236.875975307747	2
0	28523	7236.915608702931	1
0	28525	7236.948499167083	0
0	28548	7244.589330179706	1
0	28549	7244.663529848037	0
0	28552	7244.783105422423	1
0	28553	7244.805867842374	0
0	28572	7249.585074256636	1
0	28573	7249.722109073664	0
0	28580	7251.00967203845	1
0	28581	7251.102816686967	0
0	28616	7262.80695447902	1
0	28618	7263.325578655746	2
0	28620	7263.538996261704	3
0	28621	7263.602540288104	2
0	28623	7263.843836088788	1
0	28626	7263.855030778244	2
0	28627	7263.886389522292	1
0	28629	7263.934006413057	0
0	28640	7265.457252201322	1
0	28641	7265.690621903568	0
0	28688	7278.814325531645	1
0	28689	7278.82940948793	0
0	28712	7283.289893705129	1
0	28713	7283.594418495514	0
0	28720	7284.680017985895	1
0	28721	7284.969278067888	0
0	28732	7286.019004799865	1
0	28733	7286.233989377706	0
0	28744	7291.510723831198	1
0	28745	7291.617153544147	0
0	28788	7309.336824284846	1
0	28789	7309.381935475412	0
0	28804	7315.22641356898	1
0	28805	7315.565417610206	0
0	28816	7316.580539757031	1
0	28817	7316.695244526743	0
0	28832	7320.03184920314	1
0	28833	7320.140658609347	0
0	28968	7353.728325271028	1
0	28969	7353.812797634063	0
0	28980	7358.048036620269	1
0	28981	7358.103714646037	0
0	29020	7369.789021965317	1
0	29021	7369.888903354766	0
0	29052	7375.962722157745	1
0	29053	7375.978556059434	0
0	29056	7375.989424211426	1
0	29057	7376.854256227252	0
0	29100	7390.367489181375	1
0	29102	7390.449808084782	2
0	29103	7390.628033663062	1
0	29105	7390.850970793953	0
0	29108	7390.949510702984	1
0	29109	7390.980638930612	0
0	29124	7393.21685290232	1
0	29125	7393.286619731219	0
0	29132	7394.467392036419	1
0	29133	7394.589451377833	0
0	29148	7398.380716476757	1
0	29149	7398.396191448081	0
0	29212	7411.785503611992	1
0	29213	7411.957106039914	0
0	29232	7417.881181253924	1
0	29233	7418.075119512617	0
0	29280	7431.174160192369	1
0	29281	7431.603634323381	0
0	29332	7441.871656721809	1
0	29333	7442.07623879848	0
0	29348	7444.463053279246	1
0	29349	7444.604976499059	0
0	29352	7445.033876739507	1
0	29353	7445.260476573351	0
0	29392	7451.945807149924	1
0	29393	7451.950018795768	0
0	29404	7453.906124190992	1
0	29406	7454.264315213543	2
0	29408	7454.34358609104	3
0	29409	7454.461678712971	2
0	29411	7455.106714036424	1
0	29413	7455.221060969152	0
0	29428	7459.271649775701	1
0	29429	7459.376585745789	0
0	29436	7460.203451622168	1
0	29437	7460.244741744422	0
0	29440	7460.2770418377	1
0	29441	7460.387699012512	0
0	29464	7471.68270988386	1
0	29465	7472.126480723027	0
0	29484	7474.656911801213	1
0	29486	7474.906802098424	2
0	29487	7475.052354878999	1
0	29489	7475.258671039753	0
0	29496	7476.157568478865	1
0	29497	7476.354554844934	0
0	29500	7476.674788321966	1
0	29501	7477.492113579551	0
0	29516	7481.127539935455	1
0	29517	7481.266574204436	0
0	29528	7482.915059185155	1
0	29529	7483.051220164247	0
0	29540	7484.493603950381	1
0	29541	7484.56434038466	0
0	29548	7485.112033363644	1
0	29550	7485.192281605567	2
0	29551	7485.540318838818	1
0	29554	7485.666482107645	2
0	29555	7485.669659993146	1
0	29558	7485.914513445661	2
0	29559	7486.078081813833	1
0	29561	7486.082124625555	0
0	29584	7494.168713082787	1
0	29585	7494.233113766526	0
0	29588	7494.25031628182	1
0	29589	7494.263638895776	0
0	29600	7495.130797486382	1
0	29601	7495.248918760034	0
0	29640	7502.960261161436	1
0	29641	7503.097920793957	0
0	29656	7507.99519052769	1
0	29657	7508.06579990767	0
0	29664	7508.645618019547	1
0	29665	7508.71046257633	0
0	29668	7508.746444325216	1
0	29669	7508.764804401917	0
0	29716	7520.38297530113	1
0	29717	7520.510196724888	0
0	29800	7545.523134903923	1
0	29801	7545.83361009519	0
0	29816	7548.789986678451	1
0	29817	7548.890557456277	0
0	29836	7551.416753344163	1
0	29837	7551.481390131342	0
0	29856	7556.093746228639	1
0	29857	7556.186365179318	0
0	29872	7558.1238401427	1
0	29873	7558.15434700024	0
0	29888	7561.87370667764	1
0	29889	7561.93523220633	0
0	29912	7567.673375716082	1
0	29913	7568.00247496023	0
0	29940	7574.284395069722	1
[...]
1	38044	9554.142951378706	0.043011757064
1	38048	9554.70765158282	0.012432393195
1	38052	9555.99031057157	0.30793991225
1	38056	9556.309386332271	0.002917681665
1	38060	9556.633823337583	0.107214309886
1	38064	9557.345192765518	0.15771269425
1	38068	9558.889993461081	0.037962000416
1	38072	9559.841020502523	0.459433273709
1	38076	9561.172385957066	0.105079786319
1	38080	9561.979852622926	0.040203967495
1	38084	9562.994710134159	0.188927532879
1	38088	9566.09412906114	0.204024202909
1	38092	9568.088022785067	0.098424140193
1	38096	9568.792617285488	0.006394826285
1	38100	9570.564535766107	0.216732501308
1	38104	9570.648343611951	0.054300501584
1	38108	9572.220797064927	0.032486279149
1	38114	9576.269618389473	0.344003667543
1	38116	9576.409951626247	0.234935151088
1	38120	9577.923357770294	0.118815998285
1	38126	9578.372738955545	0.281170670806
1	38130	9578.499974859184	0.191467996389
1	38132	9578.689242313485	0.254032120689
1	38136	9579.112648853099	0.104256217235
1	38142	9580.242279787825	0.437000018868
1	38144	9580.409021870944	0.2591303664
1	38150	9581.003118891274	0.46560323858
1	38152	9581.46130863661	0.785937707497
1	38156	9584.572249734091	0.284235750331
1	38162	9585.621157467007	0.158837314769
1	38164	9585.833547742298	0.286566150034
1	38168	9586.745457751692	0.050227564508
1	38172	9588.236287467409	0.50297592648
1	38176	9590.11556534697	0.392845681246
1	38182	9591.258004482519	0.309427205571
1	38184	9591.263166740448	0.290392437827
1	38190	9591.925726209363	0.043265157094
1	38194	9592.422781357462	0.536901718161
1	38200	9592.753934206327	0.48300830302
1	38202	9592.763191000919	0.145490554355
1	38204	9592.866885123185	0.154666955666
1	38208	9594.643301510558	0.059243608336
1	38212	9595.22499592598	0.442727778611
1	38216	9596.64123105113	0.093347498392
1	38220	9596.904578154403	0.071012555024
1	38224	9597.127921169094	0.07158151761
1	38230	9600.699011443161	0.428148343313
1	38232	9600.737954261753	0.34473432107
1	38236	9601.102957667598	0.357901205205
1	38240	9602.555430979551	0.129851989012
1	38244	9603.489252841641	0.060530375672
1	38248	9603.676426916824	0.175525207832
1	38252	9606.24003314508	0.065420867135
1	38256	9606.645190490391	0.144675377176
1	38260	9607.18489794989	0.19021568418
1	38264	9608.027257957468	0.174945240949
1	38270	9609.058658463383	0.338821970487
1	38272	9609.25152726851	0.224982295404
1	38276	9610.552758929998	0.049856313193
1	38280	9610.984693107962	0.069881181507
1	38284	9612.398013734568	0.102892355272
1	38288	9612.749496561632	0.293489900616
1	38294	9613.4677026413	0.4690618744
1	38296	9613.47267030027	0.44844207602
1	38302	9614.491110702258	1.004687802248
1	38304	9614.626353780746	1.12217780954
1	38308	9615.110166276428	0.02825373858
1	38312	9615.56194651138	0.16668502718
1	38316	9617.037589248517	0.122694759803
1	38320	9618.517452746464	0.010115877138
1	38324	9618.764769696522	0.172372011486
1	38330	9619.857722137036	0.536392179051
1	38332	9619.985692948301	0.543645115042
1	38336	9623.294131817544	0.052065962919
1	38342	9624.796530180344	0.222303318173
1	38344	9624.85882283259	0.156168910816
1	38348	9625.907427531724	0.493470828142
1	38352	9630.305697341377	0.1296522043
1	38356	9632.168374892076	0.307009446838
1	38360	9633.176872183051	0.010077173253
1	38364	9635.526795621967	0.26371881523
1	38368	9638.529852591313	0.032028144439
1	38372	9639.584643460556	0.049107965499
1	38378	9640.6170717001	0.395100490826
1	38380	9640.643532447782	0.075851139189
1	38384	9640.889428500838	0.06982944806
1	38388	9641.162928499523	0.092377645407
1	38392	9642.147419260652	0.48161259432
1	38396	9642.262407065784	0.030837718518
1	38400	9644.72061722318	0.191910106155
1	38404	9645.609741141057	0.045356975436
1	38410	9645.687382124344	0.06816283545
1	38412	9645.805161194803	0.129279634887
1	38418	9646.83424748754	0.158472687796
1	38420	9646.872812465451	0.147886223313
1	38428	9649.379004166106	0.181031565461
1	38430	9649.639659471849	0.351870700287
1	38432	9649.744690119378	0.398357901475
1	38436	9650.325708753258	0.04480882722
1	38440	9651.000105854372	0.081271283586
1	38444	9651.147658941021	0.020636265812
1	38448	9651.832034813499	0.273171139251
1	38452	9652.462291496428	0.00294503615
1	38456	9652.599261972351	0.080630806888
1	38462	9654.625877200696	0.516302485132
1	38464	9654.667409827408	0.540976982016
1	38468	9654.855635529722	0.148264033722
1	38472	9655.782730352465	0.032326216153
1	38478	9658.465439317916	0.598222212401
1	38480	9658.809043897067	0.392785474976
1	38484	9659.037814664051	0.074975194765
1	38488	9659.777918763268	0.278821650026
1	38492	9662.670415014045	0.167566275793
1	38496	9663.450566175672	0.050116382595
1	38500	9663.773722484926	0.028863504986
1	38504	9664.277870520783	0.057335116451
1	38508	9664.852998292794	0.198305573382
1	38512	9665.483092297847	0.619220850777
1	38516	9665.883216357174	0.300004892826
1	38522	9666.813556996053	0.467561370738
1	38524	9666.856710772784	0.382450279318
1	38528	9667.441994222871	0.492056960336
1	38532	9667.874485567787	0.017696741708
1	38536	9668.991511209484	0.577149244075
1	38540	9670.191199657536	0.030447489286
1	38544	9674.34485870566	0.089736085016
1	38548	9674.621912121336	0.084793677365
1	38552	9674.866367683957	0.080052835938
1	38556	9675.396852416365	0.266828037888
1	38560	9677.495260152066	0.365857362562
1	38564	9680.094182758876	0.169014308798
1	38568	9680.653847509485	0.157964681117
1	38572	9682.412647341523	0.060574830484
1	38576	9683.229579457506	0.467280253196
1	38580	9685.108791815995	0.166379505194
1	38584	9685.407522696081	0.105971874567
1	38588	9685.884566988938	0.163968636465
1	38592	9687.685919097957	0.022067173564
1	38596	9688.214605430591	0.023629336326
1	38600	9690.24480756541	0.524242336048
1	38606	9692.875426520188	0.049322290633
1	38608	9692.938445710498	0.063210671417
1	38612	9694.180362152819	0.162946495577
1	38618	9694.410044066139	0.133442082422
1	38620	9694.57230990119	0.18393484293
1	38624	9694.897436639431	0.090961263306
1	38628	9695.462161272748	0.103911146545
1	38632	9695.68300194382	0.036976696434
1	38636	9696.185170916949	0.137439828498
1	38640	9696.496991632635	0.109967393122
1	38646	9697.419188723042	0.562961481913
1	38648	9697.4469922309	0.320231888915
1	38652	9698.030690297129	0.191287397434
1	38656	9698.831465823062	0.679397537727
1	38660	9699.11537611597	0.020619676411
1	38664	9699.652030856289	0.25539368174
1	38668	9701.146976288929	0.401262055913
1	38672	9701.671264782997	0.08076318623
1	38676	9703.781006337709	0.168498150969
1	38680	9706.773038820145	0.018780864546
1	38686	9707.973198299012	0.082213147012
1	38688	9708.030423342552	0.12277396241
1	38692	9708.9611434043	0.231270331142
1	38696	9709.862279817522	0.011459683281
1	38700	9710.77443518622	0.132031087133
1	38706	9713.339777263284	0.161418146684
1	38710	9713.875246448022	0.631272835192
1	38712	9714.383217511818	0.618969534328
1	38716	9714.639432485315	0.001322980151
1	38720	9715.585562290244	0.173991687616
1	38724	9716.235033075415	0.102094540522
1	38728	9716.812229855765	0.153684575226
1	38732	9717.430754313793	0.209736020466
1	38736	9718.173307047748	0.064144862898
1	38740	9719.078517828462	0.286384539236
1	38748	9720.820616200833	0.506448751095
1	38750	9721.23533573998	0.58992684584
1	38752	9721.516915214855	0.840065320086
1	38756	9723.021808961362	0.148659420459
1	38760	9724.997738326649	0.132792459424
1	38766	9725.309745956216	0.273297278026
1	38770	9725.606069364477	0.52896368883
1	38772	9725.608508052949	0.016899354618
1	38776	9726.345968231514	0.007712377604
1	38780	9726.687432465568	0.129849065014
1	38786	9727.542010841412	0.402515745223
1	38788	9727.590426772817	0.253831440481
1	38792	9728.225015935442	0.030998119676
1	38800	9729.351087901182	0.541097466045
1	38802	9729.614883368967	0.710310306153
1	38804	9729.677462634035	0.477519796933
1	38808	9731.784254214304	0.366872846033
1	38812	9733.428192619054	0.282947108949
1	38822	9734.547268365685	1.075950946937
1	38824	9735.002639415221	0.863524513154
1	38826	9735.034445612099	0.758741203432
1	38828	9735.046179244268	0.592096251665
1	38832	9736.298722303089	0.223598562845
1	38836	9737.319146788268	0.221222756115
1	38842	9738.636625575684	0.494660326278
1	38844	9738.68834747682	0.264407539534
1	38848	9739.036105763891	0.037659653537
1	38852	9739.226194902566	0.144108361477
1	38858	9740.222718629792	0.609707412549
1	38860	9740.288104696609	0.466060995066
1	38864	9744.030067183225	0.318580042941
1	38868	9744.592041521542	0.077115482806
1	38872	9744.790180105797	0.058906921501
1	38876	9746.522325392989	0.230469527647
1	38880	9747.442428619832	0.295161545172
1	38884	9748.281607877257	0.0026298852
1	38888	9750.676076130593	0.17522220245
1	38892	9751.834854542875	0.151389234956
1	38896	9752.00472356712	0.09853405248
1	38900	9755.302331091003	0.307719233453
1	38904	9757.037039681962	0.087986692971
1	38908	9757.802671010606	0.157064814484
1	38912	9758.779972770527	0.111673690381
1	38916	9760.110504151533	0.118860179267
1	38920	9761.869521835804	0.132957644937
1	38924	9761.99318755574	0.033963461674
1	38928	9762.965626494163	0.325376725457
1	38932	9763.777482477041	0.068665006557
1	38936	9768.298803362254	0.145256343507
1	38940	9768.421295934344	0.06378454687
1	38948	9768.894009317266	0.392201407503
1	38950	9769.278332158827	0.711223074153
1	38952	9769.879973270143	1.213968216657
1	38958	9770.538529583079	0.090594415481
1	38960	9770.974521038093	0.494463175878
1	38966	9772.508508961329	0.391596984357
1	38970	9772.679080295754	0.440475293862
1	38972	9772.711014175147	0.199942227534
1	38976	9773.65190514331	0.243579553598
1	38980	9775.670891576374	0.579314471516
1	38984	9777.672967312253	0.342189052066
1	38988	9779.478797105408	0.015923623078
1	38992	9779.540336026357	0.004556198716
1	38996	9779.741663075356	0.123472890377
1	39000	9780.718926937072	0.488389483671
1	39004	9781.56128690234	0.256288010403
1	39012	9785.09348254278	1.478967714415
1	39016	9785.565606942473	1.891675103207
1	39018	9785.863721096761	1.742877740845
1	39020	9786.198010396265	1.09018933348
1	39024	9787.401544458588	0.154701849875
1	39028	9788.983316512432	0.018961180543
1	39032	9789.260994013501	0.028044009138
1	39036	9790.720681534073	0.338001555585
1	39040	9791.369009661132	0.092208425429
1	39044	9792.505167803495	0.184583010401
1	39048	9792.835741850202	0.068980790843
1	39052	9793.774128694648	0.444254914964
1	39058	9795.970250787213	0.495379057013
1	39060	9796.593629034317	0.715138242222
1	39064	9797.581623062491	0.527994467149
1	39068	9797.841587865669	0.166030415122
1	39072	9798.356235506362	0.184200311778
1	39078	9799.592510630081	0.655341770478
1	39082	9799.685755854423	0.137801420803
1	39086	9799.885059243804	0.280650731817
1	39088	9800.000922353116	0.277026481891
1	39092	9800.966976065452	0.08453907053
1	39096	9802.900135524787	0.53026477535
1	39100	9803.49421449873	0.168628578495
1	39104	9804.006379226869	0.125137378458
1	39108	9805.149752206968	0.011129784388
1	39112	9806.568045530151	0.033799440398
1	39116	9808.787534588245	0.155629260926
1	39124	9810.169217064904	1.04495116732
1	39128	9810.381721408561	1.037140688827
1	39130	9810.533037143185	0.93975549485
1	39132	9810.914730537206	0.70630579757
1	39136	9811.690943181455	0.501178116662
1	39142	9812.66194551005	0.091182302521
1	39144	9812.697673686076	0.052307934319
1	39148	9813.842466079403	0.71019233947
1	39152	9814.436839797407	0.149939143271
1	39156	9816.072165553234	0.433924485083
1	39162	9816.180467786834	0.070908638647
1	39164	9816.199036381525	0.059388550587
1	39172	9816.714284508619	0.421407202706
1	39176	9816.957461221832	0.661253698495
1	39178	9817.062091639246	0.706407142842
1	39182	9817.883438297976	0.988934344755
1	39184	9817.988572921254	0.513218566172
1	39188	9818.617882370404	0.17051282116
1	39192	9819.187755517315	0.267341767702
1	39196	9820.045606236913	0.051029666631
1	39200	9822.559705468515	0.062859406216
1	39206	9823.458571612409	0.26851321536
1	39208	9823.787734727898	0.399589012663
1	39212	9825.155817651947	0.044777881031
1	39218	9825.439608317606	0.073847595151
1	39220	9825.441360227698	0.061100057731
1	39224	9825.886532850105	0.09717220639
1	39230	9827.538724912771	0.462759382549
1	39232	9827.641337360325	0.17170125624
1	39236	9832.363436137523	0.284604053432
1	39240	9832.794997471609	0.011819905101
1	39244	9833.035767274577	0.177295300022
1	39250	9833.842212630293	0.616013780316
1	39256	9834.674105011821	1.079954926261
1	39258	9835.272602377526	0.883674172278
1	39260	9835.275486868563	0.800449255397
1	39264	9835.705130987355	0.366385888516
1	39268	9836.140066666335	0.265390247373
1	39272	9839.030027722737	0.004998174367
1	39276	9842.121131928461	0.282660677904
1	39280	9842.409541720829	0.254235121757
1	39284	9842.521787209386	0.020316375426
1	39288	9843.666279371741	0.153736817735
1	39292	9844.157482347416	0.159202596986
1	39296	9844.850208278656	0.450482927506
1	39300	9845.569758293699	0.117081905248
1	39304	9845.890199400838	0.163813549626
1	39308	9846.113633469502	0.160122621624
1	39312	9846.455838143456	0.146533979519
1	39320	9847.601348934599	0.383680281442
1	39322	9847.752852296362	0.330000552974
1	39324	9848.245689632403	0.726784545451
1	39328	9850.493142388308	0.043743583696
1	39334	9851.79560830355	0.404990446235
1	39336	9851.872081541563	0.180976873034
1	39340	9853.150765600431	0.002578855449
1	39344	9853.373058010635	0.152338437053
1	39348	9854.489030437171	0.01980350477
1	39352	9855.118725280578	0.138352922844
1	39356	9855.768841834645	0.269242052947
1	39360	9856.517001254923	0.373868638975
1	39364	9860.094210269367	0.077961676124
1	39370	9861.964464408274	0.365026676478
1	39372	9861.976229812602	0.160683861621
1	39376	9862.20120917951	0.191225475551
1	39380	9863.440827161603	0.08602423997
1	39384	9863.90192589556	0.159147659426
1	39388	9865.353428732801	0.042625722303
1	39392	9866.113454088247	0.052594037079
1	39398	9867.298493672951	0.362048715866
1	39400	9867.617989448122	0.419429452682
1	39406	9868.006770568603	0.385278019508
1	39408	9868.136936809962	0.213380745496
1	39412	9869.901936533651	0.217019740371
1	39416	9870.267870785984	0.122568578371
1	39420	9872.214013769257	0.057302993805
1	39424	9875.137818239241	0.001243398602
1	39428	9876.216688939485	0.504663186512
1	39432	9877.728754719213	0.238872818212
1	39436	9880.909995969161	0.304497791031
1	39440	9880.982916006185	0.015400734282
1	39444	9882.393702334322	0.428963221415
1	39448	9884.009310530103	0.031736927879
1	39452	9884.835314124668	0.370354247682
1	39458	9885.584174372427	0.289396017112
1	39460	9885.852682090314	0.37018199574
1	39464	9889.917190533115	0.232436773299
1	39468	9890.404378255214	0.045255117131
1	39472	9891.157607131953	0.214466690752
1	39476	9891.719716399862	0.022990236226
1	39480	9892.865739555284	0.392676824262
1	39484	9894.014361159073	0.044721411366
1	39488	9895.272015727655	0.115822794004
1	39492	9897.808919744326	0.472986810432
1	39500	9899.102345490729	0.317366407497
1	39504	9899.332863063894	0.50304879711
1	39506	9899.705109497261	0.609829305725
1	39510	9899.854059132102	0.71991102372
1	39512	9900.214764662781	0.410196807299
1	39516	9900.650455925261	0.181746479591
1	39520	9901.765259585761	0.013639592582
1	39524	9902.596443403024	0.108852645479
1	39528	9903.20538159885	0.215879834745
1	39538	9904.227773413647	0.885144686844
1	39544	9905.062363419296	1.664705784803
1	39546	9905.251285033477	1.677607836477
1	39548	9905.37591750649	1.317595126621
1	39550	9905.407583999291	0.98432460661
1	39552	9905.514961119432	0.51731080545
1	39556	9905.966815594095	0.173185819209
1	39560	9906.9974866879	0.111910943746
1	39564	9907.128279621198	0.096731472092
1	39568	9908.981573690509	0.764884856007
1	39572	9910.808105314225	0.136444747291
1	39576	9911.226822166148	0.302997130805
1	39580	9911.455328847729	0.141164785937
1	39584	9911.599464473909	0.052775290615
1	39590	9912.203152260185	0.592722964512
1	39592	9912.629395243095	0.694303971312
1	39596	9912.667929394548	0.030614709789
1	39600	9913.372866023465	0.43253388671
1	39606	9914.737781312621	0.043883591909
1	39608	9914.905931403823	0.20931338019
1	39614	9916.133330769666	0.534773939827
1	39616	9916.299579728859	0.47024580315
1	39620	9916.813670444016	0.047557173279
1	39624	9918.741632249873	0.061564426545
1	39628	9919.41037733717	0.226995569522
1	39632	9920.1022099932	0.274904502068
1	39636	9923.551329239079	0.179176204043
1	39640	9923.930415872288	0.066097257779
1	39644	9924.842334410096	0.041348458937
1	39648	9925.384175515569	0.212637420028
1	39652	9926.799589789178	0.052099327477
1	39656	9927.309444108648	0.03553343193
1	39660	9929.176033138523	0.028114948989
1	39666	9930.184704492507	0.268527911152
1	39670	9930.433602044416	0.428667928292
1	39674	9930.958365476329	0.567798479509
1	39676	9931.019049895308	0.343395850995
1	39680	9931.893425876005	0.178053743767
1	39684	9933.99202644405	0.504188750286
1	39688	9936.901655872812	0.050593147196
1	39692	9939.259798528093	0.121015881405
1	39698	9940.468053265887	0.675208902107
1	39702	9941.087749781518	0.838597407593
1	39704	9941.231068217049	0.537149358512
1	39708	9944.094783551237	0.119083938502
1	39714	9945.662617610064	0.579455809284
1	39716	9945.845604258801	0.269745753625
1	39720	9946.762930656419	0.056722428994
1	39724	9947.167573752765	0.145683047172
1	39728	9947.631507496808	0.169985007048
1	39732	9948.797857002051	0.160722744175
1	39736	9949.037686222644	0.104067222839
1	39740	9949.250062276808	0.031663314626
1	39744	9949.807632320598	0.405075875481
1	39748	9949.941840720957	0.023830605188
1	39752	9950.522479185876	0.030040933102
1	39756	9953.691197181321	0.032326963014
1	39760	9953.974606032175	0.008041625811
1	39764	9954.399378776327	0.390008322901
1	39772	9955.150287619491	0.444585524917
1	39776	9955.319643836397	0.513509746074
1	39778	9955.373709958464	0.241906982011
1	39780	9955.473616097825	0.21106230418
1	39784	9955.908619460322	0.026970197653
1	39788	9956.790129108271	0.399598358943
1	39794	9959.456407332933	0.399119323108
1	39798	9959.726452565432	0.606525178041
1	39800	9959.762892671003	0.067695628716
1	39804	9960.776467732788	0.061204417068
1	39808	9961.631916238525	0.042713962282
1	39816	9963.026559825372	0.357316844557
1	39818	9963.03333859096	0.317254950258
1	39820	9963.065947400455	0.062503417114
1	39824	9963.635868413379	0.002029295581
1	39828	9964.770695609469	0.065287522333
1	39832	9965.982333147169	0.730938589121
1	39836	9966.132570935749	0.006440777633
1	39840	9967.245640659507	0.484841031693
1	39844	9970.134174829292	0.011937350907
1	39848	9970.49130113731	0.222808292807
1	39852	9971.131480375598	0.08606335337
1	39856	9971.737152776679	0.121576892081
1	39860	9972.233780792873	0.049984485773
1	39864	9972.357387531957	0.082656876104
1	39868	9973.140666490795	0.073664542115
1	39872	9974.717660828893	0.246817873905
1	39878	9975.952612706397	0.40998211867
1	39882	9976.057907720946	0.25124022821
1	39884	9976.396712098905	0.343527587696
1	39888	9977.933526676874	0.002323289428
1	39892	9980.489810096966	0.309948792809
1	39898	9982.153760606773	0.149290101958
1	39902	9982.512587750631	0.451735628815
1	39904	9982.563318775285	0.18562189197
1	39908	9982.952074571608	0.094559231492
1	39912	9983.195094196601	0.23927275335
1	39916	9983.9157096802	0.377328866906
1	39920	9984.308099237867	0.13013886814
1	39924	9985.083410952423	0.374628661581
1	39928	9986.724890238198	0.158955968997
1	39932	9988.187734423133	0.950525885834
1	39936	9989.083326553398	0.470168548786
1	39940	9989.993694850024	0.097430903947
1	39944	9990.774588751552	0.622375200563
1	39950	9991.326271519663	0.289925071185
1	39952	9991.475371399269	0.384134972262
1	39960	9992.725004248857	0.943068597699
1	39962	9992.820197595343	0.912748237657
1	39964	9992.86348255154	0.95378026476
1	39968	9993.121307090612	0.024215963041
1	39972	9996.458703233806	0.060793665686
1	39976	9997.814283673451	0.265984492099
1	39980	9998.138129823509	0.159900225387
1	39984	9999.33170467206	0.101217816442
1	39988	10000.333850331595	0.28411880488
1	39992	10001.132621192479	0.004814982833
1	39996	10001.589584813896	0.33594533358
1	40000	10002.16447145862	0.275878037931

